<?xml version="1.0" encoding="UTF-8"?>

<!-- generated on 12/02/19 15:53:38 by Eclipse SUMO netconvert Version 1.3.1
<configuration xmlns:xsi="http://www.w3.org/2001/XMLSchema-instance" xsi:noNamespaceSchemaLocation="http://sumo.dlr.de/xsd/netconvertConfiguration.xsd">

    <input>
        <osm-files value="map.osm"/>
    </input>

    <output>
        <output-file value="hangzhou.net.xml"/>
        <output.street-names value="true"/>
    </output>

    <projection>
        <proj.utm value="true"/>
    </projection>

    <processing>
        <geometry.remove value="true"/>
        <roundabouts.guess value="true"/>
    </processing>

    <edge_removal>
        <keep-edges.by-vclass value="passenger"/>
        <remove-edges.isolated value="true"/>
    </edge_removal>

    <junctions>
        <no-turnarounds value="true"/>
    </junctions>

</configuration>
-->

<net version="1.3" junctionCornerDetail="5" limitTurnSpeed="5.50" xmlns:xsi="http://www.w3.org/2001/XMLSchema-instance" xsi:noNamespaceSchemaLocation="http://sumo.dlr.de/xsd/net_file.xsd">

    <location netOffset="-351744.90,-2766567.91" convBoundary="0.00,0.00,4103.36,4098.00" origBoundary="121.530668,24.998027,121.583154,25.084770" projParameter="+proj=utm +zone=51 +ellps=WGS84 +datum=WGS84 +units=m +no_defs"/>

    <type id="highway.bridleway" priority="1" numLanes="1" speed="2.78" allow="pedestrian" oneway="1" width="2.00"/>
    <type id="highway.bus_guideway" priority="1" numLanes="1" speed="27.78" allow="bus" oneway="1"/>
    <type id="highway.cycleway" priority="1" numLanes="1" speed="8.33" allow="bicycle" oneway="0" width="1.00"/>
    <type id="highway.footway" priority="1" numLanes="1" speed="2.78" allow="pedestrian" oneway="1" width="2.00"/>
    <type id="highway.ford" priority="1" numLanes="1" speed="2.78" allow="army" oneway="0"/>
    <type id="highway.living_street" priority="2" numLanes="1" speed="2.78" disallow="tram rail_urban rail rail_electric rail_fast ship" oneway="0"/>
    <type id="highway.motorway" priority="14" numLanes="2" speed="39.44" allow="private emergency authority army vip passenger hov taxi bus coach delivery truck trailer motorcycle evehicle custom1 custom2" oneway="1"/>
    <type id="highway.motorway_link" priority="9" numLanes="1" speed="22.22" allow="private emergency authority army vip passenger hov taxi bus coach delivery truck trailer motorcycle evehicle custom1 custom2" oneway="1"/>
    <type id="highway.path" priority="1" numLanes="1" speed="2.78" allow="pedestrian bicycle" oneway="1" width="2.00"/>
    <type id="highway.pedestrian" priority="1" numLanes="1" speed="2.78" allow="pedestrian" oneway="1" width="2.00"/>
    <type id="highway.primary" priority="12" numLanes="2" speed="27.78" disallow="tram rail_urban rail rail_electric rail_fast ship" oneway="0"/>
    <type id="highway.primary_link" priority="7" numLanes="1" speed="22.22" disallow="tram rail_urban rail rail_electric rail_fast ship" oneway="0"/>
    <type id="highway.raceway" priority="15" numLanes="2" speed="83.33" allow="vip" oneway="0"/>
    <type id="highway.residential" priority="3" numLanes="1" speed="13.89" disallow="tram rail_urban rail rail_electric rail_fast ship" oneway="0"/>
    <type id="highway.secondary" priority="11" numLanes="2" speed="27.78" disallow="tram rail_urban rail rail_electric rail_fast ship" oneway="0"/>
    <type id="highway.secondary_link" priority="6" numLanes="1" speed="22.22" disallow="tram rail_urban rail rail_electric rail_fast ship" oneway="0"/>
    <type id="highway.service" priority="1" numLanes="1" speed="5.56" allow="pedestrian delivery bicycle" oneway="0"/>
    <type id="highway.stairs" priority="1" numLanes="1" speed="1.39" allow="pedestrian" oneway="1" width="2.00"/>
    <type id="highway.step" priority="1" numLanes="1" speed="1.39" allow="pedestrian" oneway="1" width="2.00"/>
    <type id="highway.steps" priority="1" numLanes="1" speed="1.39" allow="pedestrian" oneway="1" width="2.00"/>
    <type id="highway.tertiary" priority="10" numLanes="1" speed="22.22" disallow="tram rail_urban rail rail_electric rail_fast ship" oneway="0"/>
    <type id="highway.tertiary_link" priority="5" numLanes="1" speed="22.22" disallow="tram rail_urban rail rail_electric rail_fast ship" oneway="0"/>
    <type id="highway.track" priority="1" numLanes="1" speed="5.56" disallow="tram rail_urban rail rail_electric rail_fast ship" oneway="0"/>
    <type id="highway.trunk" priority="13" numLanes="2" speed="27.78" disallow="pedestrian bicycle tram rail_urban rail rail_electric rail_fast ship" oneway="0"/>
    <type id="highway.trunk_link" priority="8" numLanes="1" speed="22.22" disallow="pedestrian bicycle tram rail_urban rail rail_electric rail_fast ship" oneway="0"/>
    <type id="highway.unclassified" priority="4" numLanes="1" speed="13.89" disallow="tram rail_urban rail rail_electric rail_fast ship" oneway="0"/>
    <type id="highway.unsurfaced" priority="1" numLanes="1" speed="8.33" disallow="tram rail_urban rail rail_electric rail_fast ship" oneway="0"/>
    <type id="railway.highspeed" priority="21" numLanes="1" speed="69.44" allow="rail_fast" oneway="1"/>
    <type id="railway.light_rail" priority="19" numLanes="1" speed="27.78" allow="rail_urban" oneway="1"/>
    <type id="railway.preserved" priority="16" numLanes="1" speed="27.78" allow="rail" oneway="1"/>
    <type id="railway.rail" priority="20" numLanes="1" speed="44.44" allow="rail" oneway="1"/>
    <type id="railway.subway" priority="18" numLanes="1" speed="27.78" allow="rail_urban" oneway="1"/>
    <type id="railway.tram" priority="17" numLanes="1" speed="13.89" allow="tram" oneway="1"/>

    <edge id=":1760611595_0" function="internal">
        <lane id=":1760611595_0_0" index="0" disallow="tram rail_urban rail rail_electric rail_fast ship" speed="6.52" length="9.06" shape="1298.80,1711.80 1296.35,1712.22 1294.62,1713.32 1293.62,1715.11 1293.33,1717.57"/>
    </edge>
    <edge id=":1760611595_1" function="internal">
        <lane id=":1760611595_1_0" index="0" disallow="tram rail_urban rail rail_electric rail_fast ship" speed="6.50" length="9.03" shape="1292.94,1703.17 1293.35,1705.61 1294.45,1707.32 1296.23,1708.32 1298.70,1708.60"/>
    </edge>
    <edge id=":1760611595_2" function="internal">
        <lane id=":1760611595_2_0" index="0" disallow="tram rail_urban rail rail_electric rail_fast ship" speed="27.78" length="14.40" shape="1292.94,1703.17 1293.33,1717.57"/>
        <lane id=":1760611595_2_1" index="1" disallow="tram rail_urban rail rail_electric rail_fast ship" speed="27.78" length="14.40" shape="1289.74,1703.26 1290.13,1717.66"/>
    </edge>
    <edge id=":1760611597_0" function="internal">
        <lane id=":1760611597_0_0" index="0" disallow="tram rail_urban rail rail_electric rail_fast ship" speed="6.57" length="9.10" shape="1333.62,1716.28 1333.14,1713.85 1332.00,1712.15 1330.18,1711.16 1327.68,1710.90"/>
    </edge>
    <edge id=":1760611597_1" function="internal">
        <lane id=":1760611597_1_0" index="0" disallow="tram rail_urban rail rail_electric rail_fast ship" speed="13.89" length="14.40" shape="1333.62,1716.28 1332.92,1701.90"/>
    </edge>
    <edge id=":1760611597_2" function="internal">
        <lane id=":1760611597_2_0" index="0" disallow="tram rail_urban rail rail_electric rail_fast ship" speed="13.89" length="14.39" shape="1336.12,1701.75 1336.81,1716.12"/>
    </edge>
    <edge id=":1760611597_3" function="internal">
        <lane id=":1760611597_3_0" index="0" disallow="tram rail_urban rail rail_electric rail_fast ship" speed="7.98" length="5.92" shape="1336.12,1701.75 1335.75,1705.64 1334.79,1707.41"/>
    </edge>
    <edge id=":1760611597_6" function="internal">
        <lane id=":1760611597_6_0" index="0" disallow="tram rail_urban rail rail_electric rail_fast ship" speed="7.98" length="8.32" shape="1334.79,1707.41 1334.22,1708.46 1331.53,1710.22 1327.68,1710.90"/>
    </edge>
    <edge id=":1760611597_4" function="internal">
        <lane id=":1760611597_4_0" index="0" disallow="tram rail_urban rail rail_electric rail_fast ship" speed="6.48" length="9.03" shape="1327.57,1707.70 1330.01,1707.27 1331.72,1706.16 1332.69,1704.37 1332.92,1701.90"/>
    </edge>
    <edge id=":1760611597_5" function="internal">
        <lane id=":1760611597_5_0" index="0" disallow="tram rail_urban rail rail_electric rail_fast ship" speed="8.05" length="14.21" shape="1327.57,1707.70 1331.46,1708.12 1334.29,1709.66 1336.08,1712.33 1336.81,1716.12"/>
    </edge>
    <edge id=":1760611599_0" function="internal">
        <lane id=":1760611599_0_0" index="0" disallow="tram rail_urban rail rail_electric rail_fast ship" speed="6.60" length="9.15" shape="1337.06,1786.13 1336.57,1783.71 1335.41,1782.01 1333.57,1781.02 1331.06,1780.74"/>
    </edge>
    <edge id=":1760611599_1" function="internal">
        <lane id=":1760611599_1_0" index="0" disallow="tram rail_urban rail rail_electric rail_fast ship" speed="13.89" length="14.39" shape="1337.06,1786.13 1336.32,1771.76"/>
    </edge>
    <edge id=":1760611599_2" function="internal">
        <lane id=":1760611599_2_0" index="0" disallow="tram rail_urban rail rail_electric rail_fast ship" speed="13.89" length="14.37" shape="1339.52,1771.60 1340.26,1785.96"/>
    </edge>
    <edge id=":1760611599_3" function="internal">
        <lane id=":1760611599_3_0" index="0" disallow="tram rail_urban rail rail_electric rail_fast ship" speed="7.97" length="5.90" shape="1339.52,1771.60 1339.15,1775.51 1338.21,1777.25"/>
    </edge>
    <edge id=":1760611599_6" function="internal">
        <lane id=":1760611599_6_0" index="0" disallow="tram rail_urban rail rail_electric rail_fast ship" speed="7.97" length="8.37" shape="1338.21,1777.25 1337.62,1778.33 1334.92,1780.08 1331.06,1780.74"/>
    </edge>
    <edge id=":1760611599_4" function="internal">
        <lane id=":1760611599_4_0" index="0" disallow="tram rail_urban rail rail_electric rail_fast ship" speed="6.46" length="9.03" shape="1330.96,1777.54 1333.41,1777.12 1335.12,1776.02 1336.09,1774.23 1336.32,1771.76"/>
    </edge>
    <edge id=":1760611599_5" function="internal">
        <lane id=":1760611599_5_0" index="0" disallow="tram rail_urban rail rail_electric rail_fast ship" speed="8.08" length="14.21" shape="1330.96,1777.54 1334.85,1777.98 1337.70,1779.52 1339.50,1782.18 1340.26,1785.96"/>
    </edge>
    <edge id=":1760611600_0" function="internal">
        <lane id=":1760611600_0_0" index="0" disallow="tram rail_urban rail rail_electric rail_fast ship" speed="6.42" length="9.04" shape="1347.91,1907.19 1348.34,1909.65 1349.45,1911.34 1351.25,1912.28 1353.74,1912.45"/>
    </edge>
    <edge id=":1760611600_1" function="internal">
        <lane id=":1760611600_1_0" index="0" disallow="tram rail_urban rail rail_electric rail_fast ship" speed="6.67" length="9.25" shape="1339.37,1913.49 1341.77,1912.95 1343.46,1911.74 1344.44,1909.85 1344.71,1907.29"/>
    </edge>
    <edge id=":1760611600_2" function="internal">
        <lane id=":1760611600_2_0" index="0" disallow="tram rail_urban rail rail_electric rail_fast ship" speed="27.78" length="14.41" shape="1339.37,1913.49 1353.74,1912.45"/>
        <lane id=":1760611600_2_1" index="1" disallow="tram rail_urban rail rail_electric rail_fast ship" speed="27.78" length="14.41" shape="1339.60,1916.68 1353.97,1915.64"/>
    </edge>
    <edge id=":1936977761_0" function="internal">
        <lane id=":1936977761_0_0" index="0" disallow="tram rail_urban rail rail_electric rail_fast ship" speed="27.78" length="0.66" shape="660.63,392.51 660.89,392.64 661.07,392.74 661.23,392.85 661.47,393.03"/>
        <lane id=":1936977761_0_1" index="1" disallow="tram rail_urban rail rail_electric rail_fast ship" speed="27.78" length="0.66" shape="659.22,395.38 659.31,395.43 659.37,395.46 659.42,395.50 659.50,395.56"/>
    </edge>
    <edge id=":1936977777_0" function="internal">
        <lane id=":1936977777_0_0" index="0" disallow="tram rail_urban rail rail_electric rail_fast ship" speed="6.89" length="8.60" shape="674.33,424.71 674.08,427.04 674.54,429.01 675.71,430.62 677.58,431.86"/>
    </edge>
    <edge id=":1936977777_1" function="internal">
        <lane id=":1936977777_1_0" index="0" disallow="tram rail_urban rail rail_electric rail_fast ship" speed="7.70" length="10.97" shape="674.33,424.71 673.71,428.42 673.81,431.32 674.65,433.43 676.20,434.75"/>
    </edge>
    <edge id=":1936977777_2" function="internal">
        <lane id=":1936977777_2_0" index="0" disallow="tram rail_urban rail rail_electric rail_fast ship" speed="19.50" length="13.27" shape="674.33,424.71 673.42,428.64 672.63,431.34 671.33,433.77 668.89,436.93"/>
        <lane id=":1936977777_2_1" index="1" disallow="tram rail_urban rail rail_electric rail_fast ship" speed="19.04" length="13.27" shape="671.27,423.72 670.41,427.46 669.63,430.02 668.38,432.34 666.04,435.35"/>
    </edge>
    <edge id=":1962917912_0" function="internal">
        <lane id=":1962917912_0_0" index="0" disallow="tram rail_urban rail rail_electric rail_fast ship" speed="27.78" length="0.30" shape="1827.30,1686.87 1827.31,1687.17"/>
        <lane id=":1962917912_0_1" index="1" disallow="tram rail_urban rail rail_electric rail_fast ship" speed="27.78" length="0.30" shape="1824.10,1686.93 1824.11,1687.23"/>
    </edge>
    <edge id=":1962917915_0" function="internal">
        <lane id=":1962917915_0_0" index="0" disallow="tram rail_urban rail rail_electric rail_fast ship" speed="27.78" length="0.10" shape="1818.12,1686.55 1818.12,1686.55"/>
        <lane id=":1962917915_0_1" index="1" disallow="tram rail_urban rail rail_electric rail_fast ship" speed="27.78" length="0.10" shape="1821.32,1686.49 1821.32,1686.49"/>
    </edge>
    <edge id=":1962917916_0" function="internal">
        <lane id=":1962917916_0_0" index="0" disallow="tram rail_urban rail rail_electric rail_fast ship" speed="27.78" length="0.30" shape="1796.38,1685.69 1796.37,1685.39"/>
        <lane id=":1962917916_0_1" index="1" disallow="tram rail_urban rail rail_electric rail_fast ship" speed="27.78" length="0.30" shape="1799.58,1685.63 1799.57,1685.33"/>
    </edge>
    <edge id=":2034510208_0" function="internal">
        <lane id=":2034510208_0_0" index="0" disallow="tram rail_urban rail rail_electric rail_fast ship" speed="13.89" length="14.51" shape="1339.36,709.86 1331.26,721.90"/>
    </edge>
    <edge id=":2034510208_1" function="internal">
        <lane id=":2034510208_1_0" index="0" disallow="tram rail_urban rail rail_electric rail_fast ship" speed="7.88" length="6.06" shape="1339.36,709.86 1336.71,712.86 1334.84,713.71"/>
    </edge>
    <edge id=":2034510208_6" function="internal">
        <lane id=":2034510208_6_0" index="0" disallow="tram rail_urban rail rail_electric rail_fast ship" speed="7.88" length="8.40" shape="1334.84,713.71 1333.77,714.20 1330.56,713.91 1327.06,711.96"/>
    </edge>
    <edge id=":2034510208_2" function="internal">
        <lane id=":2034510208_2_0" index="0" disallow="tram rail_urban rail rail_electric rail_fast ship" speed="6.36" length="9.04" shape="1329.00,709.41 1331.19,710.63 1333.20,710.82 1335.03,709.97 1336.69,708.10"/>
    </edge>
    <edge id=":2034510208_3" function="internal">
        <lane id=":2034510208_3_0" index="0" disallow="tram rail_urban rail rail_electric rail_fast ship" speed="8.18" length="14.32" shape="1329.00,709.41 1331.81,712.23 1333.13,715.25 1332.94,718.47 1331.26,721.90"/>
    </edge>
    <edge id=":2034510208_4" function="internal">
        <lane id=":2034510208_4_0" index="0" disallow="tram rail_urban rail rail_electric rail_fast ship" speed="6.72" length="9.34" shape="1328.62,720.09 1329.70,717.87 1329.80,715.78 1328.92,713.81 1327.06,711.96"/>
    </edge>
    <edge id=":2034510208_5" function="internal">
        <lane id=":2034510208_5_0" index="0" disallow="tram rail_urban rail rail_electric rail_fast ship" speed="13.89" length="14.44" shape="1328.62,720.09 1336.69,708.10"/>
    </edge>
    <edge id=":2034510213_0" function="internal">
        <lane id=":2034510213_0_0" index="0" disallow="tram rail_urban rail rail_electric rail_fast ship" speed="13.89" length="0.29" shape="1062.78,450.97 1062.54,450.80"/>
    </edge>
    <edge id=":2034510213_1" function="internal">
        <lane id=":2034510213_1_0" index="0" disallow="tram rail_urban rail rail_electric rail_fast ship" speed="13.89" length="0.31" shape="1064.40,448.20 1064.65,448.38"/>
    </edge>
    <edge id=":2034510214_0" function="internal">
        <lane id=":2034510214_0_0" index="0" disallow="tram rail_urban rail rail_electric rail_fast ship" speed="13.89" length="14.42" shape="1265.38,586.67 1256.82,598.28"/>
    </edge>
    <edge id=":2034510214_1" function="internal">
        <lane id=":2034510214_1_0" index="0" disallow="tram rail_urban rail rail_electric rail_fast ship" speed="8.03" length="5.93" shape="1265.38,586.67 1262.66,589.44 1260.77,590.23"/>
    </edge>
    <edge id=":2034510214_6" function="internal">
        <lane id=":2034510214_6_0" index="0" disallow="tram rail_urban rail rail_electric rail_fast ship" speed="8.03" length="8.29" shape="1260.77,590.23 1259.70,590.68 1256.49,590.38 1253.04,588.56"/>
    </edge>
    <edge id=":2034510214_2" function="internal">
        <lane id=":2034510214_2_0" index="0" disallow="tram rail_urban rail rail_electric rail_fast ship" speed="6.54" length="9.09" shape="1254.91,585.97 1257.12,587.14 1259.17,587.33 1261.07,586.54 1262.80,584.78"/>
    </edge>
    <edge id=":2034510214_3" function="internal">
        <lane id=":2034510214_3_0" index="0" disallow="tram rail_urban rail rail_electric rail_fast ship" speed="7.98" length="14.24" shape="1254.91,585.97 1257.72,588.68 1258.97,591.64 1258.67,594.84 1256.82,598.28"/>
    </edge>
    <edge id=":2034510214_4" function="internal">
        <lane id=":2034510214_4_0" index="0" disallow="tram rail_urban rail rail_electric rail_fast ship" speed="6.48" length="9.03" shape="1254.25,596.37 1255.42,594.19 1255.61,592.16 1254.82,590.28 1253.04,588.56"/>
    </edge>
    <edge id=":2034510214_5" function="internal">
        <lane id=":2034510214_5_0" index="0" disallow="tram rail_urban rail rail_electric rail_fast ship" speed="13.89" length="14.41" shape="1254.25,596.37 1262.80,584.78"/>
    </edge>
    <edge id=":2037722603_0" function="internal">
        <lane id=":2037722603_0_0" index="0" disallow="tram rail_urban rail rail_electric rail_fast ship" speed="6.65" length="9.35" shape="896.14,615.15 894.74,617.32 894.34,619.41 894.95,621.43 896.57,623.38"/>
    </edge>
    <edge id=":2037722603_1" function="internal">
        <lane id=":2037722603_1_0" index="0" disallow="tram rail_urban rail rail_electric rail_fast ship" speed="18.06" length="13.71" shape="896.14,615.15 886.98,625.35"/>
    </edge>
    <edge id=":2037722603_2" function="internal">
        <lane id=":2037722603_2_0" index="0" disallow="tram rail_urban rail rail_electric rail_fast ship" speed="6.46" length="9.09" shape="885.82,613.44 887.89,614.87 889.90,615.28 891.85,614.68 893.73,613.06"/>
    </edge>
    <edge id=":2037722603_3" function="internal">
        <lane id=":2037722603_3_0" index="0" disallow="tram rail_urban rail rail_electric rail_fast ship" speed="27.78" length="14.56" shape="885.82,613.44 896.57,623.38"/>
        <lane id=":2037722603_3_1" index="1" disallow="tram rail_urban rail rail_electric rail_fast ship" speed="27.78" length="14.56" shape="883.72,615.86 894.35,625.69"/>
    </edge>
    <edge id=":2037722603_5" function="internal">
        <lane id=":2037722603_5_0" index="0" disallow="tram rail_urban rail rail_electric rail_fast ship" speed="7.14" length="11.17" shape="883.72,615.86 886.37,618.71 887.79,621.23 888.00,623.45 886.98,625.35"/>
    </edge>
    <edge id=":2037722603_6" function="internal">
        <lane id=":2037722603_6_0" index="0" disallow="tram rail_urban rail rail_electric rail_fast ship" speed="18.06" length="13.59" shape="884.64,623.17 893.73,613.06"/>
    </edge>
    <edge id=":2037722603_7" function="internal">
        <lane id=":2037722603_7_0" index="0" disallow="tram rail_urban rail rail_electric rail_fast ship" speed="7.20" length="3.43" shape="884.64,623.17 886.43,622.06 887.76,622.09"/>
    </edge>
    <edge id=":2037722603_8" function="internal">
        <lane id=":2037722603_8_0" index="0" disallow="tram rail_urban rail rail_electric rail_fast ship" speed="7.20" length="7.67" shape="887.76,622.09 888.64,622.11 891.29,623.32 894.35,625.69"/>
    </edge>
    <edge id=":2037722606_0" function="internal">
        <lane id=":2037722606_0_0" index="0" disallow="tram rail_urban rail rail_electric rail_fast ship" speed="7.06" length="9.81" shape="1209.38,898.21 1208.05,900.70 1207.69,903.01 1208.28,905.12 1209.83,907.03"/>
    </edge>
    <edge id=":2037722606_1" function="internal">
        <lane id=":2037722606_1_0" index="0" disallow="tram rail_urban rail rail_electric rail_fast ship" speed="6.28" length="9.08" shape="1199.02,897.42 1201.13,898.80 1203.11,899.10 1204.97,898.32 1206.69,896.46"/>
    </edge>
    <edge id=":2037722606_2" function="internal">
        <lane id=":2037722606_2_0" index="0" disallow="tram rail_urban rail rail_electric rail_fast ship" speed="27.78" length="14.45" shape="1199.02,897.42 1209.83,907.03"/>
        <lane id=":2037722606_2_1" index="1" disallow="tram rail_urban rail rail_electric rail_fast ship" speed="27.78" length="14.45" shape="1196.90,899.82 1207.69,909.41"/>
    </edge>
    <edge id=":2037722652_0" function="internal">
        <lane id=":2037722652_0_0" index="0" disallow="tram rail_urban rail rail_electric rail_fast ship" speed="9.07" length="8.69" shape="660.84,450.96 658.25,449.48 656.05,448.53 654.23,448.13 652.79,448.27"/>
    </edge>
    <edge id=":2037722652_1" function="internal">
        <lane id=":2037722652_1_0" index="0" disallow="tram rail_urban rail rail_electric rail_fast ship" speed="10.35" length="11.47" shape="662.54,448.25 659.31,446.45 656.44,445.34 653.94,444.93 651.80,445.22"/>
    </edge>
    <edge id=":2037722652_2" function="internal">
        <lane id=":2037722652_2_0" index="0" disallow="tram rail_urban rail rail_electric rail_fast ship" speed="23.25" length="10.71" shape="662.51,443.34 659.95,445.34 658.02,446.47 655.90,447.27 652.79,448.27"/>
        <lane id=":2037722652_2_1" index="1" disallow="tram rail_urban rail rail_electric rail_fast ship" speed="22.60" length="10.71" shape="660.94,440.49 658.53,442.39 656.72,443.49 654.74,444.27 651.80,445.22"/>
    </edge>
    <edge id=":2037722661_0" function="internal">
        <lane id=":2037722661_0_0" index="0" disallow="tram rail_urban rail rail_electric rail_fast ship" speed="27.78" length="0.48" shape="670.33,457.09 670.28,457.05 670.24,457.02 670.20,456.99 670.14,456.95"/>
        <lane id=":2037722661_0_1" index="1" disallow="tram rail_urban rail rail_electric rail_fast ship" speed="27.78" length="0.48" shape="672.45,454.70 672.29,454.55 672.18,454.46 672.06,454.38 671.88,454.26"/>
    </edge>
    <edge id=":2037722663_0" function="internal">
        <lane id=":2037722663_0_0" index="0" disallow="tram rail_urban rail rail_electric rail_fast ship" speed="27.78" length="0.59" shape="674.52,423.49 674.51,423.78 674.49,423.98 674.45,424.18 674.39,424.46"/>
        <lane id=":2037722663_0_1" index="1" disallow="tram rail_urban rail rail_electric rail_fast ship" speed="27.78" length="0.59" shape="671.32,423.40 671.32,423.45 671.32,423.49 671.32,423.53 671.30,423.59"/>
    </edge>
    <edge id=":2047590029_0" function="internal">
        <lane id=":2047590029_0_0" index="0" disallow="tram rail_urban rail rail_electric rail_fast ship" speed="18.60" length="14.36" shape="624.28,442.99 620.78,440.50 618.82,438.26 617.34,435.55 615.28,431.67"/>
        <lane id=":2047590029_0_1" index="1" disallow="tram rail_urban rail rail_electric rail_fast ship" speed="18.10" length="14.36" shape="626.68,440.71 623.35,438.37 621.46,436.28 620.02,433.74 618.06,430.08"/>
    </edge>
    <edge id=":2047590029_2" function="internal">
        <lane id=":2047590029_2_0" index="0" disallow="tram rail_urban rail rail_electric rail_fast ship" speed="9.48" length="10.11" shape="613.51,441.41 614.78,438.01 615.50,435.25 615.67,433.14 615.28,431.67"/>
    </edge>
    <edge id=":2047590029_3" function="internal">
        <lane id=":2047590029_3_0" index="0" disallow="tram rail_urban rail rail_electric rail_fast ship" speed="10.71" length="13.05" shape="616.45,442.68 617.94,438.54 618.71,435.06 618.75,432.24 618.06,430.08"/>
    </edge>
    <edge id=":2047590030_0" function="internal">
        <lane id=":2047590030_0_0" index="0" disallow="tram rail_urban rail rail_electric rail_fast ship" speed="13.58" length="0.99" shape="652.82,388.95 653.26,389.02 653.55,389.08 653.83,389.19 654.23,389.38"/>
        <lane id=":2047590030_0_1" index="1" disallow="tram rail_urban rail rail_electric rail_fast ship" speed="27.78" length="0.99" shape="652.35,392.11 652.50,392.13 652.60,392.16 652.69,392.19 652.82,392.26"/>
    </edge>
    <edge id=":2084284892_0" function="internal">
        <lane id=":2084284892_0_0" index="0" disallow="tram rail_urban rail rail_electric rail_fast ship" speed="6.30" length="8.99" shape="1008.71,1677.53 1007.11,1675.60 1005.32,1674.70 1003.33,1674.84 1001.14,1676.02"/>
    </edge>
    <edge id=":2084284892_1" function="internal">
        <lane id=":2084284892_1_0" index="0" disallow="tram rail_urban rail rail_electric rail_fast ship" speed="8.33" length="11.18" shape="1008.71,1677.53 1002.84,1668.01"/>
    </edge>
    <edge id=":2084284892_2" function="internal">
        <lane id=":2084284892_2_0" index="0" disallow="tram rail_urban rail rail_electric rail_fast ship" speed="8.33" length="11.13" shape="1005.57,1666.35 1011.41,1675.82"/>
    </edge>
    <edge id=":2084284892_3" function="internal">
        <lane id=":2084284892_3_0" index="0" disallow="tram rail_urban rail rail_electric rail_fast ship" speed="7.57" length="11.71" shape="1005.57,1666.35 1006.30,1668.60 1005.81,1670.97 1004.09,1673.44 1001.14,1676.02"/>
    </edge>
    <edge id=":2084284895_0" function="internal">
        <lane id=":2084284895_0_0" index="0" disallow="tram rail_urban rail rail_electric rail_fast ship" speed="6.70" length="9.80" shape="1056.40,1759.81 1055.64,1757.42 1054.17,1755.87 1052.00,1755.17 1049.12,1755.30"/>
    </edge>
    <edge id=":2084284895_1" function="internal">
        <lane id=":2084284895_1_0" index="0" disallow="tram rail_urban rail rail_electric rail_fast ship" speed="8.33" length="20.71" shape="1056.40,1759.81 1055.06,1755.42 1052.61,1750.27 1049.81,1745.25 1047.40,1741.25"/>
    </edge>
    <edge id=":2084284895_2" function="internal">
        <lane id=":2084284895_2_0" index="0" disallow="tram rail_urban rail rail_electric rail_fast ship" speed="8.33" length="21.78" shape="1056.40,1759.81 1055.90,1755.03 1055.51,1748.96 1055.23,1742.89 1055.05,1738.08"/>
    </edge>
    <edge id=":2084284895_3" function="internal">
        <lane id=":2084284895_3_0" index="0" disallow="tram rail_urban rail rail_electric rail_fast ship" speed="8.33" length="21.42" shape="1058.25,1737.97 1058.42,1742.73 1058.70,1748.68 1059.08,1754.62 1059.56,1759.35"/>
    </edge>
    <edge id=":2084284895_4" function="internal">
        <lane id=":2084284895_4_0" index="0" disallow="tram rail_urban rail rail_electric rail_fast ship" speed="10.26" length="21.47" shape="1058.25,1737.97 1057.87,1744.93 1056.22,1750.14 1053.31,1753.60 1049.12,1755.30"/>
    </edge>
    <edge id=":2084284895_5" function="internal">
        <lane id=":2084284895_5_0" index="0" disallow="tram rail_urban rail rail_electric rail_fast ship" speed="6.35" length="15.42" shape="1058.25,1737.97 1057.11,1741.90 1054.14,1743.98 1050.52,1743.88 1047.40,1741.25"/>
    </edge>
    <edge id=":2084284895_6" function="internal">
        <lane id=":2084284895_6_0" index="0" disallow="tram rail_urban rail rail_electric rail_fast ship" speed="5.53" length="11.22" shape="1050.12,1739.57 1052.40,1742.66 1053.98,1743.44 1054.86,1741.92 1055.05,1738.08"/>
    </edge>
    <edge id=":2084284895_7" function="internal">
        <lane id=":2084284895_7_0" index="0" disallow="tram rail_urban rail rail_electric rail_fast ship" speed="8.33" length="22.00" shape="1050.12,1739.57 1052.60,1743.76 1055.56,1749.20 1058.15,1754.77 1059.56,1759.35"/>
    </edge>
    <edge id=":2084284895_8" function="internal">
        <lane id=":2084284895_8_0" index="0" disallow="tram rail_urban rail rail_electric rail_fast ship" speed="8.19" length="19.31" shape="1050.12,1739.57 1053.32,1745.83 1054.22,1750.53 1052.82,1753.69 1049.12,1755.30"/>
    </edge>
    <edge id=":2084949039_0" function="internal">
        <lane id=":2084949039_0_0" index="0" disallow="tram rail_urban rail rail_electric rail_fast ship" speed="22.22" length="0.10" shape="2132.93,2458.72 2132.93,2458.72"/>
    </edge>
    <edge id=":2089570192_0" function="internal">
        <lane id=":2089570192_0_0" index="0" disallow="tram rail_urban rail rail_electric rail_fast ship" speed="6.56" length="9.10" shape="585.19,488.66 587.59,489.38 589.65,489.18 591.36,488.05 592.73,485.99"/>
    </edge>
    <edge id=":2089570192_1" function="internal">
        <lane id=":2089570192_1_0" index="0" disallow="tram rail_urban rail rail_electric rail_fast ship" speed="6.47" length="9.03" shape="586.54,498.99 587.28,496.63 587.08,494.60 585.94,492.92 583.85,491.57"/>
    </edge>
    <edge id=":2089570192_2" function="internal">
        <lane id=":2089570192_2_0" index="0" disallow="tram rail_urban rail rail_electric rail_fast ship" speed="27.78" length="14.42" shape="586.54,498.99 592.73,485.99"/>