<?xml version="1.0" encoding="UTF-8"?>

<!-- generated on 12/23/19 17:15:54 by Eclipse SUMO netedit Version 1.4.0
<configuration xmlns:xsi="http://www.w3.org/2001/XMLSchema-instance" xsi:noNamespaceSchemaLocation="http://sumo.dlr.de/xsd/netconvertConfiguration.xsd">

    <input>
        <sumo-net-file value="C:\Users\AvisChiu\Desktop\sumo-1.4.0\bin\document\real%20work\bigmac_e1(2)\bigmac.net.xml"/>
    </input>

    <output>
        <output-file value="C:\Users\AvisChiu\Desktop\sumo-1.4.0\bin\document\real%20work\bigmac_e1(2)\bigmac.net.xml"/>
    </output>

    <processing>
        <geometry.min-radius.fix.railways value="false"/>
        <geometry.max-grade.fix value="false"/>
        <offset.disable-normalization value="true"/>
        <lefthand value="false"/>
    </processing>

    <junctions>
        <no-turnarounds value="true"/>
        <junctions.corner-detail value="5"/>
        <junctions.limit-turn-speed value="5.5"/>
        <rectangular-lane-cut value="false"/>
    </junctions>

    <pedestrian>
        <walkingareas value="false"/>
    </pedestrian>

    <report>
        <aggregate-warnings value="5"/>
    </report>

</configuration>
-->

<net version="1.3" junctionCornerDetail="5" limitTurnSpeed="5.50" xmlns:xsi="http://www.w3.org/2001/XMLSchema-instance" xsi:noNamespaceSchemaLocation="http://sumo.dlr.de/xsd/net_file.xsd">

    <location netOffset="0.00,0.00" convBoundary="-850.41,107.05,1579.40,2137.93" origBoundary="-10000000000.00,-10000000000.00,10000000000.00,10000000000.00" projParameter="!"/>

    <edge id=":gneJ10_0" function="internal">
        <lane id=":gneJ10_0_0" index="0" speed="6.74" length="9.33" shape="188.21,114.22 185.78,114.61 184.01,115.73 182.89,117.57 182.41,120.14"/>
    </edge>
    <edge id=":gneJ10_1" function="internal">
        <lane id=":gneJ10_1_0" index="0" speed="13.89" length="14.41" shape="188.21,114.22 173.81,114.34"/>
    </edge>
    <edge id=":gneJ10_2" function="internal">
        <lane id=":gneJ10_2_0" index="0" speed="13.89" length="14.39" shape="173.79,111.14 188.18,111.02"/>
    </edge>
    <edge id=":gneJ10_3" function="internal">
        <lane id=":gneJ10_3_0" index="0" speed="7.90" length="5.92" shape="173.79,111.14 177.73,111.68 179.39,112.69"/>
    </edge>
    <edge id=":gneJ10_6" function="internal">
        <lane id=":gneJ10_6_0" index="0" speed="7.90" length="8.48" shape="179.39,112.69 180.48,113.36 182.04,116.18 182.41,120.14"/>
    </edge>
    <edge id=":gneJ10_4" function="internal">
        <lane id=":gneJ10_4_0" index="0" speed="6.39" length="9.04" shape="179.22,119.98 178.99,117.50 178.01,115.73 176.28,114.68 173.81,114.34"/>
    </edge>
    <edge id=":gneJ10_5" function="internal">
        <lane id=":gneJ10_5_0" index="0" speed="8.20" length="14.27" shape="179.22,119.98 179.94,116.09 181.68,113.30 184.42,111.61 188.18,111.02"/>
    </edge>
    <edge id=":gneJ102_0" function="internal">
        <lane id=":gneJ102_0_0" index="0" speed="6.86" length="9.57" shape="-359.93,949.01 -362.48,949.41 -364.37,950.52 -365.57,952.35 -366.10,954.89"/>
    </edge>
    <edge id=":gneJ102_1" function="internal">
        <lane id=":gneJ102_1_0" index="0" speed="13.89" length="14.65" shape="-359.93,949.01 -374.57,948.86"/>
    </edge>
    <edge id=":gneJ102_2" function="internal">
        <lane id=":gneJ102_2_0" index="0" speed="7.96" length="6.18" shape="-359.93,949.01 -363.82,948.50 -365.76,947.35"/>
    </edge>
    <edge id=":gneJ102_12" function="internal">
        <lane id=":gneJ102_12_0" index="0" speed="7.96" length="8.10" shape="-365.76,947.35 -366.58,946.86 -368.22,944.10 -368.74,940.21"/>
    </edge>
    <edge id=":gneJ102_3" function="internal">
        <lane id=":gneJ102_3_0" index="0" speed="6.46" length="9.03" shape="-365.54,940.24 -365.21,942.70 -364.18,944.45 -362.43,945.49 -359.96,945.81"/>
    </edge>
    <edge id=":gneJ102_4" function="internal">
        <lane id=":gneJ102_4_0" index="0" speed="13.89" length="14.66" shape="-365.54,940.24 -366.10,954.89"/>
    </edge>
    <edge id=":gneJ102_5" function="internal">
        <lane id=":gneJ102_5_0" index="0" speed="7.97" length="6.23" shape="-365.54,940.24 -366.14,944.12 -367.36,946.07"/>
    </edge>
    <edge id=":gneJ102_13" function="internal">
        <lane id=":gneJ102_13_0" index="0" speed="7.97" length="8.08" shape="-367.36,946.07 -367.85,946.85 -370.66,948.43 -374.57,948.86"/>
    </edge>
    <edge id=":gneJ102_6" function="internal">
        <lane id=":gneJ102_6_0" index="0" speed="6.47" length="9.07" shape="-374.47,945.67 -371.99,945.39 -370.20,944.39 -369.12,942.66 -368.74,940.21"/>
    </edge>
    <edge id=":gneJ102_7" function="internal">
        <lane id=":gneJ102_7_0" index="0" speed="13.89" length="14.51" shape="-374.47,945.67 -359.96,945.81"/>
    </edge>
    <edge id=":gneJ102_8" function="internal">
        <lane id=":gneJ102_8_0" index="0" speed="7.94" length="5.71" shape="-374.47,945.67 -370.59,946.35 -369.11,947.32"/>
    </edge>
    <edge id=":gneJ102_14" function="internal">
        <lane id=":gneJ102_14_0" index="0" speed="7.94" length="8.61" shape="-369.11,947.32 -367.90,948.12 -366.40,950.96 -366.10,954.89"/>
    </edge>
    <edge id=":gneJ102_9" function="internal">
        <lane id=":gneJ102_9_0" index="0" speed="6.44" length="9.03" shape="-369.29,954.69 -369.48,952.21 -370.43,950.41 -372.12,949.30 -374.57,948.86"/>
    </edge>
    <edge id=":gneJ102_10" function="internal">
        <lane id=":gneJ102_10_0" index="0" speed="13.89" length="14.49" shape="-369.29,954.69 -368.74,940.21"/>
    </edge>
    <edge id=":gneJ102_11" function="internal">
        <lane id=":gneJ102_11_0" index="0" speed="8.30" length="5.76" shape="-369.29,954.69 -368.49,950.84 -367.48,949.31"/>
    </edge>
    <edge id=":gneJ102_15" function="internal">
        <lane id=":gneJ102_15_0" index="0" speed="8.30" length="8.69" shape="-367.48,949.31 -366.67,948.08 -363.83,946.41 -359.96,945.81"/>
    </edge>
    <edge id=":gneJ103_0" function="internal">
        <lane id=":gneJ103_0_0" index="0" speed="6.58" length="9.19" shape="-120.21,946.17 -122.71,946.54 -124.49,947.61 -125.57,949.38 -125.94,951.86"/>
    </edge>
    <edge id=":gneJ103_1" function="internal">
        <lane id=":gneJ103_1_0" index="0" speed="13.89" length="14.53" shape="-120.21,946.17 -134.74,946.29"/>
    </edge>
    <edge id=":gneJ103_2" function="internal">
        <lane id=":gneJ103_2_0" index="0" speed="7.96" length="5.89" shape="-120.21,946.17 -124.10,945.63 -125.78,944.62"/>
    </edge>
    <edge id=":gneJ103_12" function="internal">
        <lane id=":gneJ103_12_0" index="0" speed="7.96" length="8.40" shape="-125.78,944.62 -126.86,943.97 -128.47,941.18 -128.94,937.28"/>
    </edge>
    <edge id=":gneJ103_3" function="internal">
        <lane id=":gneJ103_3_0" index="0" speed="6.45" length="9.03" shape="-125.74,937.35 -125.44,939.82 -124.42,941.58 -122.68,942.63 -120.22,942.97"/>
    </edge>
    <edge id=":gneJ103_4" function="internal">
        <lane id=":gneJ103_4_0" index="0" speed="13.89" length="14.51" shape="-125.74,937.35 -125.94,951.86"/>
    </edge>
    <edge id=":gneJ103_5" function="internal">
        <lane id=":gneJ103_5_0" index="0" speed="8.14" length="5.91" shape="-125.74,937.35 -126.38,941.22 -127.42,942.91"/>
    </edge>
    <edge id=":gneJ103_13" function="internal">
        <lane id=":gneJ103_13_0" index="0" speed="8.14" length="8.45" shape="-127.42,942.91 -128.09,944.00 -130.87,945.69 -134.74,946.29"/>
    </edge>
    <edge id=":gneJ103_6" function="internal">
        <lane id=":gneJ103_6_0" index="0" speed="6.68" length="9.32" shape="-134.78,943.09 -132.27,942.70 -130.46,941.60 -129.35,939.80 -128.94,937.28"/>
    </edge>
    <edge id=":gneJ103_7" function="internal">
        <lane id=":gneJ103_7_0" index="0" speed="13.89" length="14.55" shape="-134.78,943.09 -120.22,942.97"/>
    </edge>
    <edge id=":gneJ103_8" function="internal">
        <lane id=":gneJ103_8_0" index="0" speed="7.97" length="5.98" shape="-134.78,943.09 -130.89,943.60 -129.12,944.64"/>
    </edge>
    <edge id=":gneJ103_14" function="internal">
        <lane id=":gneJ103_14_0" index="0" speed="7.97" length="8.28" shape="-129.12,944.64 -128.12,945.23 -126.47,947.98 -125.94,951.86"/>
    </edge>
    <edge id=":gneJ103_9" function="internal">
        <lane id=":gneJ103_9_0" index="0" speed="6.47" length="9.03" shape="-129.14,951.85 -129.48,949.39 -130.52,947.64 -132.28,946.61 -134.74,946.29"/>
    </edge>
    <edge id=":gneJ103_10" function="internal">
        <lane id=":gneJ103_10_0" index="0" speed="13.89" length="14.57" shape="-129.14,951.85 -128.94,937.28"/>
    </edge>
    <edge id=":gneJ103_11" function="internal">
        <lane id=":gneJ103_11_0" index="0" speed="8.06" length="6.04" shape="-129.14,951.85 -128.56,947.98 -127.46,946.16"/>
    </edge>
    <edge id=":gneJ103_15" function="internal">
        <lane id=":gneJ103_15_0" index="0" speed="8.06" length="8.28" shape="-127.46,946.16 -126.89,945.21 -124.11,943.54 -120.22,942.97"/>
    </edge>
    <edge id=":gneJ104_0" function="internal">
        <lane id=":gneJ104_0_0" index="0" speed="6.88" length="9.72" shape="133.16,945.29 130.55,945.64 128.62,946.74 127.38,948.58 126.84,951.17"/>
    </edge>
    <edge id=":gneJ104_1" function="internal">
        <lane id=":gneJ104_1_0" index="0" speed="13.89" length="14.85" shape="133.16,945.29 118.32,945.27"/>
    </edge>
    <edge id=":gneJ104_2" function="internal">
        <lane id=":gneJ104_2_0" index="0" speed="7.88" length="5.89" shape="133.16,945.29 129.21,944.69 127.61,943.68"/>
    </edge>
    <edge id=":gneJ104_12" function="internal">
        <lane id=":gneJ104_12_0" index="0" speed="7.88" length="8.56" shape="127.61,943.68 126.48,942.97 124.98,940.11 124.70,936.12"/>
    </edge>
    <edge id=":gneJ104_3" function="internal">
        <lane id=":gneJ104_3_0" index="0" speed="6.37" length="9.04" shape="127.89,936.36 128.07,938.85 129.01,940.64 130.71,941.72 133.18,942.09"/>
    </edge>
    <edge id=":gneJ104_4" function="internal">
        <lane id=":gneJ104_4_0" index="0" speed="13.89" length="14.85" shape="127.89,936.36 126.84,951.17"/>
    </edge>
    <edge id=":gneJ104_5" function="internal">
        <lane id=":gneJ104_5_0" index="0" speed="8.36" length="6.05" shape="127.89,936.36 127.05,940.24 125.89,941.96"/>
    </edge>
    <edge id=":gneJ104_13" function="internal">
        <lane id=":gneJ104_13_0" index="0" speed="8.36" length="8.63" shape="125.89,941.96 125.17,943.02 122.26,944.70 118.32,945.27"/>
    </edge>
    <edge id=":gneJ104_6" function="internal">
        <lane id=":gneJ104_6_0" index="0" speed="6.94" length="9.80" shape="118.30,942.07 120.94,941.69 122.88,940.57 124.14,938.71 124.70,936.12"/>
    </edge>
    <edge id=":gneJ104_7" function="internal">
        <lane id=":gneJ104_7_0" index="0" speed="13.89" length="14.88" shape="118.30,942.07 133.18,942.09"/>
    </edge>
    <edge id=":gneJ104_8" function="internal">
        <lane id=":gneJ104_8_0" index="0" speed="7.88" length="6.00" shape="118.30,942.07 122.27,942.62 123.97,943.68"/>
    </edge>
    <edge id=":gneJ104_14" function="internal">
        <lane id=":gneJ104_14_0" index="0" speed="7.88" length="8.47" shape="123.97,943.68 125.02,944.33 126.54,947.18 126.84,951.17"/>
    </edge>
    <edge id=":gneJ104_9" function="internal">
        <lane id=":gneJ104_9_0" index="0" speed="6.35" length="9.04" shape="123.64,950.95 123.46,948.46 122.51,946.68 120.79,945.62 118.32,945.27"/>
    </edge>
    <edge id=":gneJ104_10" function="internal">
        <lane id=":gneJ104_10_0" index="0" speed="13.89" length="14.87" shape="123.64,950.95 124.70,936.12"/>
    </edge>
    <edge id=":gneJ104_11" function="internal">
        <lane id=":gneJ104_11_0" index="0" speed="8.31" length="6.11" shape="123.64,950.95 124.47,947.05 125.65,945.29"/>
    </edge>
    <edge id=":gneJ104_15" function="internal">
        <lane id=":gneJ104_15_0" index="0" speed="8.31" length="8.55" shape="125.65,945.29 126.34,944.28 129.24,942.62 133.18,942.09"/>
    </edge>
    <edge id=":gneJ105_0" function="internal">
        <lane id=":gneJ105_0_0" index="0" speed="6.81" length="9.54" shape="417.19,947.20 414.64,947.56 412.77,948.65 411.57,950.48 411.05,953.05"/>
    </edge>
    <edge id=":gneJ105_1" function="internal">
        <lane id=":gneJ105_1_0" index="0" speed="13.89" length="14.66" shape="417.19,947.20 402.53,947.12"/>
    </edge>
    <edge id=":gneJ105_2" function="internal">
        <lane id=":gneJ105_2_0" index="0" speed="7.97" length="5.94" shape="417.19,947.20 413.31,946.63 411.58,945.57"/>
    </edge>
    <edge id=":gneJ105_12" function="internal">
        <lane id=":gneJ105_12_0" index="0" speed="7.97" length="8.32" shape="411.58,945.57 410.57,944.95 408.97,942.16 408.50,938.27"/>
    </edge>
    <edge id=":gneJ105_3" function="internal">
        <lane id=":gneJ105_3_0" index="0" speed="6.47" length="9.03" shape="411.70,938.35 412.00,940.81 413.01,942.58 414.74,943.64 417.20,944.00"/>
    </edge>
    <edge id=":gneJ105_4" function="internal">
        <lane id=":gneJ105_4_0" index="0" speed="13.89" length="14.72" shape="411.70,938.35 411.05,953.05"/>
    </edge>
    <edge id=":gneJ105_5" function="internal">
        <lane id=":gneJ105_5_0" index="0" speed="8.11" length="6.16" shape="411.70,938.35 411.05,942.21 409.85,944.10"/>
    </edge>
    <edge id=":gneJ105_13" function="internal">
        <lane id=":gneJ105_13_0" index="0" speed="8.11" length="8.26" shape="409.85,944.10 409.30,944.96 406.46,946.59 402.53,947.12"/>
    </edge>
    <edge id=":gneJ105_6" function="internal">
        <lane id=":gneJ105_6_0" index="0" speed="6.64" length="9.32" shape="402.55,943.92 405.10,943.58 406.95,942.53 408.08,940.76 408.50,938.27"/>
    </edge>
    <edge id=":gneJ105_7" function="internal">
        <lane id=":gneJ105_7_0" index="0" speed="13.89" length="14.65" shape="402.55,943.92 417.20,944.00"/>
    </edge>
    <edge id=":gneJ105_8" function="internal">
        <lane id=":gneJ105_8_0" index="0" speed="7.90" length="5.93" shape="402.55,943.92 406.49,944.51 408.14,945.55"/>
    </edge>
    <edge id=":gneJ105_14" function="internal">
        <lane id=":gneJ105_14_0" index="0" speed="7.90" length="8.49" shape="408.14,945.55 409.22,946.23 410.74,949.08 411.05,953.05"/>
    </edge>
    <edge id=":gneJ105_9" function="internal">
        <lane id=":gneJ105_9_0" index="0" speed="6.38" length="9.04" shape="407.85,952.84 407.66,950.35 406.71,948.57 405.00,947.49 402.53,947.12"/>
    </edge>
    <edge id=":gneJ105_10" function="internal">
        <lane id=":gneJ105_10_0" index="0" speed="13.89" length="14.59" shape="407.85,952.84 408.50,938.27"/>
    </edge>
    <edge id=":gneJ105_11" function="internal">
        <lane id=":gneJ105_11_0" index="0" speed="8.26" length="5.86" shape="407.85,952.84 408.65,948.96 409.70,947.38"/>
    </edge>
    <edge id=":gneJ105_15" function="internal">
        <lane id=":gneJ105_15_0" index="0" speed="8.26" length="8.62" shape="409.70,947.38 410.48,946.19 413.33,944.54 417.20,944.00"/>
    </edge>
    <edge id=":gneJ106_0" function="internal">
        <lane id=":gneJ106_0_0" index="0" speed="6.60" length="9.25" shape="-371.37,1127.86 -373.93,1128.23 -375.76,1129.29 -376.86,1131.05 -377.23,1133.49"/>
    </edge>
    <edge id=":gneJ106_1" function="internal">
        <lane id=":gneJ106_1_0" index="0" speed="13.89" length="14.61" shape="-371.37,1127.86 -385.98,1127.67"/>
    </edge>
    <edge id=":gneJ106_2" function="internal">
        <lane id=":gneJ106_2_0" index="0" speed="7.88" length="6.18" shape="-371.37,1127.86 -375.34,1127.32 -377.19,1126.19"/>
    </edge>
    <edge id=":gneJ106_12" function="internal">
        <lane id=":gneJ106_12_0" index="0" speed="7.88" length="8.30" shape="-377.19,1126.19 -378.09,1125.63 -379.62,1122.79 -379.93,1118.79"/>
    </edge>
    <edge id=":gneJ106_3" function="internal">
        <lane id=":gneJ106_3_0" index="0" speed="6.35" length="9.04" shape="-376.74,1119.00 -376.55,1121.49 -375.59,1123.27 -373.87,1124.33 -371.39,1124.66"/>
    </edge>
    <edge id=":gneJ106_4" function="internal">
        <lane id=":gneJ106_4_0" index="0" speed="13.89" length="14.50" shape="-376.74,1119.00 -377.23,1133.49"/>
    </edge>
    <edge id=":gneJ106_5" function="internal">
        <lane id=":gneJ106_5_0" index="0" speed="8.13" length="5.79" shape="-376.74,1119.00 -377.54,1122.91 -378.53,1124.41"/>
    </edge>
    <edge id=":gneJ106_13" function="internal">
        <lane id=":gneJ106_13_0" index="0" speed="8.13" length="8.57" shape="-378.53,1124.41 -379.34,1125.65 -382.16,1127.24 -385.98,1127.67"/>
    </edge>
    <edge id=":gneJ106_6" function="internal">
        <lane id=":gneJ106_6_0" index="0" speed="6.66" length="9.30" shape="-385.87,1124.47 -383.41,1124.19 -381.61,1123.15 -380.45,1121.35 -379.93,1118.79"/>
    </edge>
    <edge id=":gneJ106_7" function="internal">
        <lane id=":gneJ106_7_0" index="0" speed="13.89" length="14.48" shape="-385.87,1124.47 -371.39,1124.66"/>
    </edge>
    <edge id=":gneJ106_8" function="internal">
        <lane id=":gneJ106_8_0" index="0" speed="8.08" length="5.68" shape="-385.87,1124.47 -382.08,1125.15 -380.54,1126.14"/>
    </edge>
    <edge id=":gneJ106_14" function="internal">
        <lane id=":gneJ106_14_0" index="0" speed="8.08" length="8.45" shape="-380.54,1126.14 -379.38,1126.88 -377.77,1129.66 -377.23,1133.49"/>
    </edge>
    <edge id=":gneJ106_9" function="internal">
        <lane id=":gneJ106_9_0" index="0" speed="6.60" length="9.10" shape="-380.43,1133.49 -380.78,1131.01 -381.82,1129.22 -383.55,1128.11 -385.98,1127.67"/>
    </edge>
    <edge id=":gneJ106_10" function="internal">
        <lane id=":gneJ106_10_0" index="0" speed="13.89" length="14.70" shape="-380.43,1133.49 -379.93,1118.79"/>
    </edge>
    <edge id=":gneJ106_11" function="internal">
        <lane id=":gneJ106_11_0" index="0" speed="8.08" length="6.21" shape="-380.43,1133.49 -379.86,1129.65 -378.64,1127.67"/>
    </edge>
    <edge id=":gneJ106_15" function="internal">
        <lane id=":gneJ106_15_0" index="0" speed="8.08" length="8.17" shape="-378.64,1127.67 -378.17,1126.90 -375.34,1125.24 -371.39,1124.66"/>
    </edge>
    <edge id=":gneJ107_0" function="internal">
        <lane id=":gneJ107_0_0" index="0" speed="6.53" length="9.09" shape="-129.99,1131.67 -130.37,1129.19 -131.44,1127.43 -133.20,1126.38 -135.65,1126.05"/>
    </edge>
    <edge id=":gneJ107_1" function="internal">
        <lane id=":gneJ107_1_0" index="0" speed="13.89" length="14.48" shape="-129.99,1131.67 -130.03,1117.19"/>
    </edge>
    <edge id=":gneJ107_2" function="internal">
        <lane id=":gneJ107_2_0" index="0" speed="7.97" length="6.02" shape="-129.99,1131.67 -129.48,1127.78 -128.41,1125.97"/>
    </edge>
    <edge id=":gneJ107_12" function="internal">
        <lane id=":gneJ107_12_0" index="0" speed="7.97" length="8.24" shape="-128.41,1125.97 -127.84,1125.02 -125.08,1123.37 -121.20,1122.85"/>
    </edge>
    <edge id=":gneJ107_3" function="internal">
        <lane id=":gneJ107_3_0" index="0" speed="6.47" length="9.03" shape="-121.22,1126.05 -123.68,1126.38 -125.43,1127.42 -126.47,1129.17 -126.79,1131.63"/>
    </edge>
    <edge id=":gneJ107_4" function="internal">
        <lane id=":gneJ107_4_0" index="0" speed="13.89" length="14.43" shape="-121.22,1126.05 -135.65,1126.05"/>
    </edge>
    <edge id=":gneJ107_5" function="internal">
        <lane id=":gneJ107_5_0" index="0" speed="8.02" length="5.89" shape="-121.22,1126.05 -125.09,1125.47 -126.78,1124.45"/>
    </edge>
    <edge id=":gneJ107_13" function="internal">
        <lane id=":gneJ107_13_0" index="0" speed="8.02" length="8.35" shape="-126.78,1124.45 -127.85,1123.80 -129.50,1121.04 -130.03,1117.19"/>
    </edge>
    <edge id=":gneJ107_6" function="internal">
        <lane id=":gneJ107_6_0" index="0" speed="6.53" length="9.09" shape="-126.83,1117.21 -126.49,1119.66 -125.44,1121.42 -123.67,1122.48 -121.20,1122.85"/>
    </edge>
    <edge id=":gneJ107_7" function="internal">
        <lane id=":gneJ107_7_0" index="0" speed="13.89" length="14.43" shape="-126.83,1117.21 -126.79,1131.63"/>
    </edge>
    <edge id=":gneJ107_8" function="internal">
        <lane id=":gneJ107_8_0" index="0" speed="8.04" length="5.85" shape="-126.83,1117.21 -127.40,1121.05 -128.42,1122.74"/>
    </edge>
    <edge id=":gneJ107_14" function="internal">
        <lane id=":gneJ107_14_0" index="0" speed="8.04" length="8.34" shape="-128.42,1122.74 -129.06,1123.80 -131.81,1125.47 -135.65,1126.05"/>
    </edge>
    <edge id=":gneJ107_9" function="internal">
        <lane id=":gneJ107_9_0" index="0" speed="6.55" length="9.08" shape="-135.67,1122.85 -133.22,1122.48 -131.46,1121.41 -130.40,1119.65 -130.03,1117.19"/>
    </edge>
    <edge id=":gneJ107_10" function="internal">
        <lane id=":gneJ107_10_0" index="0" speed="13.89" length="14.48" shape="-135.67,1122.85 -121.20,1122.85"/>
    </edge>
    <edge id=":gneJ107_11" function="internal">
        <lane id=":gneJ107_11_0" index="0" speed="8.02" length="6.00" shape="-135.67,1122.85 -131.82,1123.37 -130.01,1124.45"/>
    </edge>
    <edge id=":gneJ107_15" function="internal">
        <lane id=":gneJ107_15_0" index="0" speed="8.02" length="8.24" shape="-130.01,1124.45 -129.06,1125.01 -127.38,1127.76 -126.79,1131.63"/>
    </edge>
    <edge id=":gneJ108_0" function="internal">
        <lane id=":gneJ108_0_0" index="0" speed="6.64" length="9.33" shape="120.64,1127.87 118.07,1128.24 116.22,1129.31 115.10,1131.08 114.70,1133.55"/>
    </edge>
    <edge id=":gneJ108_1" function="internal">
        <lane id=":gneJ108_1_0" index="0" speed="13.89" length="14.68" shape="120.64,1127.87 105.96,1127.86"/>
    </edge>
    <edge id=":gneJ108_2" function="internal">
        <lane id=":gneJ108_2_0" index="0" speed="7.87" length="6.03" shape="120.64,1127.87 116.67,1127.32 114.95,1126.27"/>
    </edge>
    <edge id=":gneJ108_12" function="internal">
        <lane id=":gneJ108_12_0" index="0" speed="7.87" length="8.46" shape="114.95,1126.27 113.92,1125.63 112.39,1122.78 112.10,1118.78"/>
    </edge>
    <edge id=":gneJ108_3" function="internal">
        <lane id=":gneJ108_3_0" index="0" speed="6.35" length="9.04" shape="115.29,1119.00 115.47,1121.49 116.42,1123.27 118.14,1124.33 120.62,1124.67"/>
    </edge>
    <edge id=":gneJ108_4" function="internal">
        <lane id=":gneJ108_4_0" index="0" speed="13.89" length="14.56" shape="115.29,1119.00 114.70,1133.55"/>
    </edge>
    <edge id=":gneJ108_5" function="internal">
        <lane id=":gneJ108_5_0" index="0" speed="8.26" length="5.82" shape="115.29,1119.00 114.47,1122.90 113.47,1124.43"/>
    </edge>
    <edge id=":gneJ108_13" function="internal">
        <lane id=":gneJ108_13_0" index="0" speed="8.26" length="8.67" shape="113.47,1124.43 112.65,1125.68 109.81,1127.33 105.96,1127.86"/>
    </edge>
    <edge id=":gneJ108_6" function="internal">
        <lane id=":gneJ108_6_0" index="0" speed="6.82" length="9.55" shape="105.98,1124.66 108.50,1124.31 110.36,1123.21 111.56,1121.37 112.10,1118.78"/>
    </edge>
    <edge id=":gneJ108_7" function="internal">
        <lane id=":gneJ108_7_0" index="0" speed="13.89" length="14.64" shape="105.98,1124.66 120.62,1124.67"/>
    </edge>
    <edge id=":gneJ108_8" function="internal">
        <lane id=":gneJ108_8_0" index="0" speed="8.00" length="5.85" shape="105.98,1124.66 109.83,1125.24 111.50,1126.27"/>
    </edge>
    <edge id=":gneJ108_14" function="internal">
        <lane id=":gneJ108_14_0" index="0" speed="8.00" length="8.35" shape="111.50,1126.27 112.57,1126.92 114.19,1129.69 114.70,1133.55"/>
    </edge>
    <edge id=":gneJ108_9" function="internal">
        <lane id=":gneJ108_9_0" index="0" speed="6.50" length="9.03" shape="111.50,1133.51 111.18,1131.06 110.15,1129.30 108.41,1128.23 105.96,1127.86"/>
    </edge>
    <edge id=":gneJ108_10" function="internal">
        <lane id=":gneJ108_10_0" index="0" speed="13.89" length="14.75" shape="111.50,1133.51 112.10,1118.78"/>
    </edge>
    <edge id=":gneJ108_11" function="internal">
        <lane id=":gneJ108_11_0" index="0" speed="8.11" length="6.21" shape="111.50,1133.51 112.11,1129.67 113.34,1127.70"/>
    </edge>
    <edge id=":gneJ108_15" function="internal">
        <lane id=":gneJ108_15_0" index="0" speed="8.11" length="8.21" shape="113.34,1127.70 113.83,1126.91 116.67,1125.25 120.62,1124.67"/>
    </edge>
    <edge id=":gneJ109_0" function="internal">
        <lane id=":gneJ109_0_0" index="0" speed="6.54" length="9.09" shape="396.83,1131.66 396.44,1129.18 395.37,1127.42 393.61,1126.38 391.16,1126.04"/>
    </edge>
    <edge id=":gneJ109_1" function="internal">
        <lane id=":gneJ109_1_0" index="0" speed="13.89" length="14.77" shape="396.83,1131.66 397.21,1116.89"/>
    </edge>
    <edge id=":gneJ109_2" function="internal">
        <lane id=":gneJ109_2_0" index="0" speed="8.01" length="6.33" shape="396.83,1131.66 397.34,1127.78 398.58,1125.70"/>
    </edge>
    <edge id=":gneJ109_12" function="internal">
        <lane id=":gneJ109_12_0" index="0" speed="8.01" length="8.05" shape="398.58,1125.70 399.00,1125.01 401.80,1123.35 405.74,1122.80"/>
    </edge>
    <edge id=":gneJ109_3" function="internal">
        <lane id=":gneJ109_3_0" index="0" speed="6.52" length="9.16" shape="405.74,1126.00 403.21,1126.35 401.42,1127.40 400.36,1129.16 400.03,1131.61"/>
    </edge>
    <edge id=":gneJ109_4" function="internal">
        <lane id=":gneJ109_4_0" index="0" speed="13.89" length="14.58" shape="405.74,1126.00 391.16,1126.04"/>
    </edge>
    <edge id=":gneJ109_5" function="internal">
        <lane id=":gneJ109_5_0" index="0" speed="7.89" length="5.90" shape="405.74,1126.00 401.79,1125.43 400.17,1124.41"/>
    </edge>
    <edge id=":gneJ109_13" function="internal">
        <lane id=":gneJ109_13_0" index="0" speed="7.89" length="8.54" shape="400.17,1124.41 399.05,1123.72 397.52,1120.87 397.21,1116.89"/>
    </edge>
    <edge id=":gneJ109_6" function="internal">
        <lane id=":gneJ109_6_0" index="0" speed="6.37" length="9.04" shape="400.41,1117.10 400.60,1119.59 401.56,1121.37 403.27,1122.44 405.74,1122.80"/>
    </edge>
    <edge id=":gneJ109_7" function="internal">
        <lane id=":gneJ109_7_0" index="0" speed="13.89" length="14.52" shape="400.41,1117.10 400.03,1131.61"/>
    </edge>
    <edge id=":gneJ109_8" function="internal">
        <lane id=":gneJ109_8_0" index="0" speed="8.28" length="5.71" shape="400.41,1117.10 399.61,1120.99 398.67,1122.44"/>
    </edge>
    <edge id=":gneJ109_14" function="internal">
        <lane id=":gneJ109_14_0" index="0" speed="8.28" length="8.74" shape="398.67,1122.44 397.81,1123.77 394.99,1125.46 391.16,1126.04"/>
    </edge>
    <edge id=":gneJ109_9" function="internal">
        <lane id=":gneJ109_9_0" index="0" speed="6.84" length="9.55" shape="391.14,1122.84 393.65,1122.45 395.50,1121.33 396.69,1119.48 397.21,1116.89"/>
    </edge>
    <edge id=":gneJ109_10" function="internal">
        <lane id=":gneJ109_10_0" index="0" speed="13.89" length="14.60" shape="391.14,1122.84 405.74,1122.80"/>
    </edge>
    <edge id=":gneJ109_11" function="internal">
        <lane id=":gneJ109_11_0" index="0" speed="8.03" length="5.95" shape="391.14,1122.84 394.98,1123.36 396.77,1124.42"/>
    </edge>
    <edge id=":gneJ109_15" function="internal">
        <lane id=":gneJ109_15_0" index="0" speed="8.03" length="8.27" shape="396.77,1124.42 397.75,1125.00 399.43,1127.75 400.03,1131.61"/>
    </edge>
    <edge id=":gneJ110_0" function="internal">
        <lane id=":gneJ110_0_0" index="0" speed="7.05" length="9.97" shape="718.03,948.38 715.36,948.81 713.39,949.97 712.11,951.86 711.53,954.49"/>
    </edge>
    <edge id=":gneJ110_1" function="internal">
        <lane id=":gneJ110_1_0" index="0" speed="13.89" length="14.97" shape="718.03,948.38 703.07,948.51"/>
    </edge>
    <edge id=":gneJ110_2" function="internal">
        <lane id=":gneJ110_2_0" index="0" speed="7.86" length="6.09" shape="718.03,948.38 714.04,947.89 712.26,946.83"/>
    </edge>
    <edge id=":gneJ110_12" function="internal">
        <lane id=":gneJ110_12_0" index="0" speed="7.86" length="8.43" shape="712.26,946.83 711.26,946.23 709.71,943.39 709.39,939.38"/>
    </edge>
    <edge id=":gneJ110_3" function="internal">
        <lane id=":gneJ110_3_0" index="0" speed="6.33" length="9.04" shape="712.58,939.57 712.78,942.07 713.75,943.84 715.48,944.88 717.96,945.18"/>
    </edge>
    <edge id=":gneJ110_4" function="internal">
        <lane id=":gneJ110_4_0" index="0" speed="13.89" length="14.95" shape="712.58,939.57 711.53,954.49"/>
    </edge>
    <edge id=":gneJ110_5" function="internal">
        <lane id=":gneJ110_5_0" index="0" speed="8.31" length="6.18" shape="712.58,939.57 711.78,943.50 710.57,945.31"/>
    </edge>
    <edge id=":gneJ110_13" function="internal">
        <lane id=":gneJ110_13_0" index="0" speed="8.31" length="8.52" shape="710.57,945.31 709.92,946.29 707.02,947.96 703.07,948.51"/>
    </edge>
    <edge id=":gneJ110_6" function="internal">
        <lane id=":gneJ110_6_0" index="0" speed="6.87" length="9.75" shape="703.08,945.31 705.70,944.95 707.63,943.84 708.85,941.98 709.39,939.38"/>
    </edge>
    <edge id=":gneJ110_7" function="internal">
        <lane id=":gneJ110_7_0" index="0" speed="13.89" length="14.88" shape="703.08,945.31 717.96,945.18"/>
    </edge>
    <edge id=":gneJ110_8" function="internal">
        <lane id=":gneJ110_8_0" index="0" speed="7.87" length="5.81" shape="703.08,945.31 707.05,945.90 708.57,946.86"/>
    </edge>
    <edge id=":gneJ110_14" function="internal">