<additional xmlns:xsi="http://www.w3.org/2001/XMLSchema-instance" xsi:noNamespaceSchemaLocation="http://sumo.dlr.de/xsd/additional_file.xsd">
    
    
    <e1Detector file="e1output.xml" freq="60" friendlyPos="x" id="e1det_gneE128_0" lane="gneE128_0" pos="185.63"/>
    
</additional>
