<?xml version="1.0" encoding="UTF-8"?>
<!-- generated on 2020-01-15 17:58:16.073000 by randomTrips.py v1_4_0+0000-d7c9afb42e
  options: -n bigmac.net.xml -r bigmac.rou3.xml -b 61201 -e 68400 -p 0.35
-->
<routes xmlns:xsi="http://www.w3.org/2001/XMLSchema-instance" xsi:noNamespaceSchemaLocation="http://sumo.dlr.de/xsd/routes_file.xsd">
    <trip id="0" depart="61201.00" from="-gneE216" to="-gneE110"/>
    <trip id="1" depart="61201.35" from="gneE22" to="-gneE31"/>
    <trip id="2" depart="61201.70" from="-gneE62" to="gneE119"/>
    <trip id="3" depart="61202.05" from="-gneE122" to="-gneE191"/>
    <trip id="4" depart="61202.40" from="gneE182" to="-gneE107"/>
    <trip id="5" depart="61202.75" from="-gneE173" to="-gneE106"/>
    <trip id="6" depart="61203.10" from="gneE95" to="-gneE215"/>
    <trip id="7" depart="61203.45" from="gneE196" to="-gneE150"/>
    <trip id="8" depart="61203.80" from="gneE96" to="gneE132"/>
    <trip id="9" depart="61204.15" from="gneE167" to="-gneE62"/>
    <trip id="10" depart="61204.50" from="gneE99" to="-gneE101"/>
    <trip id="11" depart="61204.85" from="gneE86" to="gneE171"/>
    <trip id="12" depart="61205.20" from="gneE193" to="-gneE139"/>
    <trip id="13" depart="61205.55" from="gneE51" to="-gneE197"/>
    <trip id="14" depart="61205.90" from="gneE72" to="-gneE38"/>
    <trip id="15" depart="61206.25" from="gneE33" to="-gneE65"/>
    <trip id="16" depart="61206.60" from="gneE62" to="gneE99"/>
    <trip id="17" depart="61206.95" from="gneE16" to="-gneE93"/>
    <trip id="18" depart="61207.30" from="-gneE21" to="gneE185"/>
    <trip id="19" depart="61207.65" from="-gneE149" to="-gneE36"/>
    <trip id="20" depart="61208.00" from="gneE215" to="gneE41"/>
    <trip id="21" depart="61208.35" from="gneE218" to="-gneE220"/>
    <trip id="22" depart="61208.70" from="gneE120" to="-gneE126"/>
    <trip id="23" depart="61209.05" from="gneE219" to="gneE153"/>
    <trip id="24" depart="61209.40" from="gneE219" to="gneE123"/>
    <trip id="25" depart="61209.75" from="gneE101" to="-gneE177"/>
    <trip id="26" depart="61210.10" from="gneE166" to="gneE153"/>
    <trip id="27" depart="61210.45" from="-gneE122" to="gneE91"/>
    <trip id="28" depart="61210.80" from="-gneE208" to="gneE9"/>
    <trip id="29" depart="61211.15" from="gneE136" to="-gneE11"/>
    <trip id="30" depart="61211.50" from="-gneE35" to="-gneE36"/>
    <trip id="31" depart="61211.85" from="-gneE141" to="gneE177"/>
    <trip id="32" depart="61212.20" from="-gneE121" to="gneE149"/>
    <trip id="33" depart="61212.55" from="-gneE110" to="-gneE181"/>
    <trip id="34" depart="61212.90" from="gneE213" to="-gneE31"/>
    <trip id="35" depart="61213.25" from="gneE5" to="-gneE45"/>
    <trip id="36" depart="61213.60" from="-gneE43" to="gneE196"/>
    <trip id="37" depart="61213.95" from="gneE10" to="-gneE21"/>
    <trip id="38" depart="61214.30" from="gneE145" to="gneE142"/>
    <trip id="39" depart="61214.65" from="gneE157" to="-gneE216"/>
    <trip id="40" depart="61215.00" from="gneE168" to="gneE86"/>
    <trip id="41" depart="61215.35" from="gneE16" to="gneE122"/>
    <trip id="42" depart="61215.70" from="gneE196" to="gneE11"/>
    <trip id="43" depart="61216.05" from="-gneE203" to="gneE205"/>
    <trip id="44" depart="61216.40" from="gneE64" to="-gneE136"/>
    <trip id="45" depart="61216.75" from="-gneE145" to="-gneE146"/>
    <trip id="46" depart="61217.10" from="-gneE147" to="gneE53"/>
    <trip id="47" depart="61217.45" from="gneE62" to="gneE198"/>
    <trip id="48" depart="61217.80" from="-gneE77" to="-gneE35"/>
    <trip id="49" depart="61218.15" from="-gneE136" to="-gneE114"/>
    <trip id="50" depart="61218.50" from="gneE38" to="gneE147"/>
    <trip id="51" depart="61218.85" from="gneE142" to="gneE93"/>
    <trip id="52" depart="61219.20" from="gneE107" to="-gneE198"/>
    <trip id="53" depart="61219.55" from="-gneE10" to="gneE49"/>
    <trip id="54" depart="61219.90" from="gneE125" to="gneE160"/>
    <trip id="55" depart="61220.25" from="-gneE129" to="-gneE167"/>
    <trip id="56" depart="61220.60" from="gneE107" to="gneE215"/>
    <trip id="57" depart="61220.95" from="gneE140" to="gneE124"/>
    <trip id="58" depart="61221.30" from="-gneE171" to="gneE179"/>
    <trip id="59" depart="61221.65" from="gneE160" to="gneE131"/>
    <trip id="60" depart="61222.00" from="gneE221" to="gneE45"/>
    <trip id="61" depart="61222.35" from="-gneE218" to="gneE105"/>
    <trip id="62" depart="61222.70" from="-gneE108" to="gneE139"/>
    <trip id="63" depart="61223.05" from="-gneE53" to="-gneE93"/>
    <trip id="64" depart="61223.40" from="gneE25" to="-gneE132"/>
    <trip id="65" depart="61223.75" from="gneE188" to="-gneE134"/>
    <trip id="66" depart="61224.10" from="-gneE140" to="-gneE108"/>
    <trip id="67" depart="61224.45" from="gneE146" to="gneE30"/>
    <trip id="68" depart="61224.80" from="-gneE170" to="gneE142"/>
    <trip id="69" depart="61225.15" from="-gneE150" to="gneE181"/>
    <trip id="70" depart="61225.50" from="-gneE26" to="-gneE220"/>
    <trip id="71" depart="61225.85" from="gneE223" to="-gneE169"/>
    <trip id="72" depart="61226.20" from="gneE53" to="-gneE212"/>
    <trip id="73" depart="61226.55" from="gneE28" to="-gneE181"/>
    <trip id="74" depart="61226.90" from="-gneE22" to="-gneE172"/>
    <trip id="75" depart="61227.25" from="-gneE213" to="-gneE55"/>
    <trip id="76" depart="61227.60" from="gneE173" to="-gneE61"/>
    <trip id="77" depart="61227.95" from="gneE101" to="gneE147"/>
    <trip id="78" depart="61228.30" from="gneE212" to="gneE186"/>
    <trip id="79" depart="61228.65" from="gneE107" to="-gneE160"/>
    <trip id="80" depart="61229.00" from="-gneE159" to="-gneE130"/>
    <trip id="81" depart="61229.35" from="-gneE189" to="-gneE141"/>
    <trip id="82" depart="61229.70" from="gneE105" to="-gneE18"/>
    <trip id="83" depart="61230.05" from="-gneE195" to="gneE52"/>
    <trip id="84" depart="61230.40" from="gneE221" to="gneE153"/>
    <trip id="85" depart="61230.75" from="-gneE56" to="gneE60"/>
    <trip id="86" depart="61231.10" from="gneE111" to="gneE14"/>
    <trip id="87" depart="61231.45" from="gneE117" to="gneE73"/>
    <trip id="88" depart="61231.80" from="-gneE15" to="gneE147"/>
    <trip id="89" depart="61232.15" from="-gneE188" to="gneE79"/>
    <trip id="90" depart="61232.50" from="gneE53" to="-gneE222"/>
    <trip id="91" depart="61232.85" from="gneE153" to="-gneE35"/>
    <trip id="92" depart="61233.20" from="gneE78" to="gneE197"/>
    <trip id="93" depart="61233.55" from="gneE205" to="gneE210"/>
    <trip id="94" depart="61233.90" from="gneE207" to="-gneE216"/>
    <trip id="95" depart="61234.25" from="-gneE60" to="gneE181"/>
    <trip id="96" depart="61234.60" from="-gneE72" to="gneE182"/>
    <trip id="97" depart="61234.95" from="-gneE119" to="-gneE78"/>
    <trip id="98" depart="61235.30" from="-gneE52" to="gneE157"/>
    <trip id="99" depart="61235.65" from="gneE73" to="gneE203"/>
    <trip id="100" depart="61236.00" from="-gneE99" to="gneE169"/>
    <trip id="101" depart="61236.35" from="-gneE114" to="gneE24"/>
    <trip id="102" depart="61236.70" from="gneE100" to="gneE124"/>
    <trip id="103" depart="61237.05" from="-gneE147" to="gneE201"/>
    <trip id="104" depart="61237.40" from="-gneE200" to="gneE128"/>
    <trip id="105" depart="61237.75" from="gneE18" to="-gneE55"/>
    <trip id="106" depart="61238.10" from="-gneE115" to="gneE151"/>
    <trip id="107" depart="61238.45" from="-gneE209" to="-gneE211"/>
    <trip id="108" depart="61238.80" from="-gneE221" to="gneE143"/>
    <trip id="109" depart="61239.15" from="-gneE140" to="gneE91"/>
    <trip id="110" depart="61239.50" from="gneE64" to="gneE63"/>
    <trip id="111" depart="61239.85" from="gneE107" to="-gneE181"/>
    <trip id="112" depart="61240.20" from="gneE107" to="-gneE42"/>
    <trip id="113" depart="61240.55" from="-gneE67" to="-gneE166"/>
    <trip id="114" depart="61240.90" from="-gneE98" to="gneE191"/>
    <trip id="115" depart="61241.25" from="-gneE49" to="gneE220"/>
    <trip id="116" depart="61241.60" from="-gneE123" to="gneE25"/>
    <trip id="117" depart="61241.95" from="-gneE107" to="-gneE177"/>
    <trip id="118" depart="61242.30" from="-gneE165" to="gneE123"/>
    <trip id="119" depart="61242.65" from="-gneE200" to="gneE27"/>
    <trip id="120" depart="61243.00" from="gneE106" to="gneE209"/>
    <trip id="121" depart="61243.35" from="-gneE186" to="gneE129"/>
    <trip id="122" depart="61243.70" from="-gneE186" to="-gneE221"/>
    <trip id="123" depart="61244.05" from="-gneE130" to="gneE199"/>
    <trip id="124" depart="61244.40" from="gneE206" to="-gneE22"/>
    <trip id="125" depart="61244.75" from="-gneE86" to="-gneE127"/>
    <trip id="126" depart="61245.10" from="gneE139" to="-gneE184"/>
    <trip id="127" depart="61245.45" from="-gneE186" to="-gneE172"/>
    <trip id="128" depart="61245.80" from="gneE138" to="gneE92"/>
    <trip id="129" depart="61246.15" from="gneE194" to="-gneE105"/>
    <trip id="130" depart="61246.50" from="gneE92" to="gneE175"/>
    <trip id="131" depart="61246.85" from="gneE183" to="gneE191"/>
    <trip id="132" depart="61247.20" from="gneE153" to="-gneE63"/>
    <trip id="133" depart="61247.55" from="-gneE198" to="gneE157"/>
    <trip id="134" depart="61247.90" from="gneE160" to="-gneE193"/>
    <trip id="135" depart="61248.25" from="gneE144" to="-gneE78"/>
    <trip id="136" depart="61248.60" from="-gneE33" to="-gneE58"/>
    <trip id="137" depart="61248.95" from="gneE174" to="-gneE92"/>
    <trip id="138" depart="61249.30" from="gneE125" to="gneE108"/>
    <trip id="139" depart="61249.65" from="-gneE73" to="-gneE174"/>
    <trip id="140" depart="61250.00" from="gneE167" to="gneE122"/>
    <trip id="141" depart="61250.35" from="gneE91" to="-gneE131"/>
    <trip id="142" depart="61250.70" from="gneE140" to="gneE21"/>
    <trip id="143" depart="61251.05" from="gneE24" to="-gneE34"/>
    <trip id="144" depart="61251.40" from="-gneE128" to="-gneE193"/>
    <trip id="145" depart="61251.75" from="gneE181" to="-gneE91"/>
    <trip id="146" depart="61252.10" from="-gneE26" to="gneE128"/>
    <trip id="147" depart="61252.45" from="-gneE142" to="-gneE138"/>
    <trip id="148" depart="61252.80" from="gneE36" to="gneE73"/>
    <trip id="149" depart="61253.15" from="gneE48" to="-gneE128"/>
    <trip id="150" depart="61253.50" from="gneE149" to="gneE214"/>
    <trip id="151" depart="61253.85" from="gneE91" to="-gneE14"/>
    <trip id="152" depart="61254.20" from="-gneE135" to="gneE129"/>
    <trip id="153" depart="61254.55" from="gneE140" to="gneE160"/>
    <trip id="154" depart="61254.90" from="gneE177" to="-gneE206"/>
    <trip id="155" depart="61255.25" from="gneE120" to="gneE216"/>
    <trip id="156" depart="61255.60" from="-gneE174" to="gneE182"/>
    <trip id="157" depart="61255.95" from="-gneE50" to="gneE52"/>
    <trip id="158" depart="61256.30" from="gneE221" to="gneE220"/>
    <trip id="159" depart="61256.65" from="-gneE119" to="-gneE218"/>
    <trip id="160" depart="61257.00" from="gneE170" to="-gneE136"/>
    <trip id="161" depart="61257.35" from="gneE205" to="-gneE27"/>
    <trip id="162" depart="61257.70" from="gneE24" to="gneE210"/>
    <trip id="163" depart="61258.05" from="gneE14" to="-gneE200"/>
    <trip id="164" depart="61258.40" from="gneE166" to="gneE68"/>
    <trip id="165" depart="61258.75" from="-gneE210" to="-gneE78"/>
    <trip id="166" depart="61259.10" from="gneE64" to="-gneE15"/>
    <trip id="167" depart="61259.45" from="-gneE61" to="gneE200"/>
    <trip id="168" depart="61259.80" from="gneE104" to="-gneE27"/>
    <trip id="169" depart="61260.15" from="-gneE214" to="gneE36"/>
    <trip id="170" depart="61260.50" from="-gneE131" to="-gneE55"/>
    <trip id="171" depart="61260.85" from="-gneE86" to="gneE127"/>
    <trip id="172" depart="61261.20" from="gneE216" to="-gneE53"/>
    <trip id="173" depart="61261.55" from="gneE38" to="-gneE168"/>
    <trip id="174" depart="61261.90" from="gneE129" to="-gneE24"/>
    <trip id="175" depart="61262.25" from="-gneE208" to="-gneE210"/>
    <trip id="176" depart="61262.60" from="gneE183" to="gneE143"/>
    <trip id="177" depart="61262.95" from="gneE152" to="-gneE210"/>
    <trip id="178" depart="61263.30" from="-gneE207" to="gneE141"/>
    <trip id="179" depart="61263.65" from="gneE34" to="-gneE196"/>
    <trip id="180" depart="61264.00" from="-gneE147" to="gneE68"/>
    <trip id="181" depart="61264.35" from="-gneE77" to="-gneE218"/>
    <trip id="182" depart="61264.70" from="-gneE170" to="-gneE127"/>
    <trip id="183" depart="61265.05" from="-gneE176" to="gneE91"/>
    <trip id="184" depart="61265.40" from="gneE24" to="-gneE170"/>
    <trip id="185" depart="61265.75" from="-gneE98" to="-gneE65"/>
    <trip id="186" depart="61266.10" from="-gneE5" to="-gneE145"/>
    <trip id="187" depart="61266.45" from="-gneE182" to="gneE20"/>
    <trip id="188" depart="61266.80" from="gneE121" to="-gneE177"/>
    <trip id="189" depart="61267.15" from="gneE182" to="gneE198"/>
    <trip id="190" depart="61267.50" from="-gneE35" to="gneE119"/>
    <trip id="191" depart="61267.85" from="gneE213" to="gneE223"/>
    <trip id="192" depart="61268.20" from="-gneE65" to="-gneE158"/>
    <trip id="193" depart="61268.55" from="-gneE44" to="-gneE196"/>
    <trip id="194" depart="61268.90" from="gneE175" to="gneE55"/>
    <trip id="195" depart="61269.25" from="gneE159" to="gneE168"/>
    <trip id="196" depart="61269.60" from="gneE171" to="gneE122"/>
    <trip id="197" depart="61269.95" from="gneE139" to="-gneE109"/>
    <trip id="198" depart="61270.30" from="gneE51" to="gneE168"/>
    <trip id="199" depart="61270.65" from="-gneE216" to="gneE104"/>
    <trip id="200" depart="61271.00" from="gneE121" to="-gneE123"/>
    <trip id="201" depart="61271.35" from="gneE184" to="-gneE177"/>
    <trip id="202" depart="61271.70" from="gneE196" to="gneE117"/>
    <trip id="203" depart="61272.05" from="gneE189" to="gneE167"/>
    <trip id="204" depart="61272.40" from="-gneE211" to="-gneE206"/>
    <trip id="205" depart="61272.75" from="gneE25" to="-gneE218"/>
    <trip id="206" depart="61273.10" from="-gneE93" to="gneE45"/>
    <trip id="207" depart="61273.45" from="gneE25" to="-gneE20"/>
    <trip id="208" depart="61273.80" from="gneE127" to="gneE197"/>
    <trip id="209" depart="61274.15" from="gneE163" to="-gneE203"/>
    <trip id="210" depart="61274.50" from="-gneE190" to="gneE173"/>
    <trip id="211" depart="61274.85" from="-gneE136" to="gneE216"/>
    <trip id="212" depart="61275.20" from="gneE191" to="-gneE190"/>
    <trip id="213" depart="61275.55" from="gneE157" to="gneE11"/>
    <trip id="214" depart="61275.90" from="gneE128" to="-gneE150"/>
    <trip id="215" depart="61276.25" from="gneE15" to="-gneE204"/>
    <trip id="216" depart="61276.60" from="-gneE190" to="gneE107"/>
    <trip id="217" depart="61276.95" from="gneE212" to="gneE169"/>
    <trip id="218" depart="61277.30" from="gneE153" to="gneE118"/>
    <trip id="219" depart="61277.65" from="gneE187" to="gneE114"/>
    <trip id="220" depart="61278.00" from="gneE200" to="gneE92"/>
    <trip id="221" depart="61278.35" from="-gneE210" to="gneE123"/>
    <trip id="222" depart="61278.70" from="-gneE218" to="gneE68"/>
    <trip id="223" depart="61279.05" from="gneE44" to="-gneE15"/>
    <trip id="224" depart="61279.40" from="-gneE45" to="-gneE188"/>
    <trip id="225" depart="61279.75" from="-gneE189" to="-gneE31"/>
    <trip id="226" depart="61280.10" from="-gneE31" to="-gneE21"/>
    <trip id="227" depart="61280.45" from="gneE93" to="gneE145"/>
    <trip id="228" depart="61280.80" from="gneE14" to="gneE123"/>
    <trip id="229" depart="61281.15" from="gneE164" to="-gneE126"/>
    <trip id="230" depart="61281.50" from="gneE210" to="gneE136"/>
    <trip id="231" depart="61281.85" from="gneE27" to="gneE149"/>
    <trip id="232" depart="61282.20" from="-gneE189" to="-gneE177"/>
    <trip id="233" depart="61282.55" from="gneE128" to="gneE46"/>
    <trip id="234" depart="61282.90" from="gneE194" to="-gneE164"/>
    <trip id="235" depart="61283.25" from="gneE187" to="-gneE101"/>
    <trip id="236" depart="61283.60" from="-gneE45" to="-gneE223"/>
    <trip id="237" depart="61283.95" from="-gneE103" to="-gneE20"/>
    <trip id="238" depart="61284.30" from="gneE192" to="gneE133"/>
    <trip id="239" depart="61284.65" from="gneE30" to="gneE118"/>
    <trip id="240" depart="61285.00" from="-gneE191" to="gneE223"/>
    <trip id="241" depart="61285.35" from="-gneE15" to="-gneE66"/>
    <trip id="242" depart="61285.70" from="-gneE173" to="gneE49"/>
    <trip id="243" depart="61286.05" from="-gneE177" to="-gneE120"/>
    <trip id="244" depart="61286.40" from="-gneE54" to="gneE38"/>
    <trip id="245" depart="61286.75" from="-gneE144" to="gneE142"/>
    <trip id="246" depart="61287.10" from="gneE16" to="gneE128"/>
    <trip id="247" depart="61287.45" from="gneE86" to="gneE191"/>
    <trip id="248" depart="61287.80" from="-gneE79" to="-gneE15"/>
    <trip id="249" depart="61288.15" from="gneE223" to="gneE95"/>
    <trip id="250" depart="61288.50" from="-gneE157" to="-gneE211"/>
    <trip id="251" depart="61288.85" from="gneE31" to="gneE18"/>
    <trip id="252" depart="61289.20" from="gneE189" to="-gneE194"/>
    <trip id="253" depart="61289.55" from="-gneE21" to="gneE165"/>
    <trip id="254" depart="61289.90" from="-gneE58" to="-gneE123"/>
    <trip id="255" depart="61290.25" from="-gneE223" to="-gneE106"/>
    <trip id="256" depart="61290.60" from="-gneE164" to="-gneE215"/>
    <trip id="257" depart="61290.95" from="-gneE101" to="gneE210"/>
    <trip id="258" depart="61291.30" from="-gneE15" to="gneE122"/>
    <trip id="259" depart="61291.65" from="gneE124" to="gneE205"/>
    <trip id="260" depart="61292.00" from="gneE176" to="-gneE133"/>
    <trip id="261" depart="61292.35" from="gneE134" to="gneE174"/>
    <trip id="262" depart="61292.70" from="-gneE142" to="gneE103"/>
    <trip id="263" depart="61293.05" from="gneE39" to="gneE75"/>
    <trip id="264" depart="61293.40" from="-gneE61" to="-gneE18"/>
    <trip id="265" depart="61293.75" from="-gneE28" to="gneE173"/>
    <trip id="266" depart="61294.10" from="gneE138" to="-gneE51"/>
    <trip id="267" depart="61294.45" from="gneE211" to="gneE222"/>
    <trip id="268" depart="61294.80" from="-gneE199" to="gneE199"/>
    <trip id="269" depart="61295.15" from="gneE49" to="gneE62"/>
    <trip id="270" depart="61295.50" from="gneE128" to="-gneE109"/>
    <trip id="271" depart="61295.85" from="-gneE196" to="-gneE142"/>
    <trip id="272" depart="61296.20" from="gneE147" to="-gneE78"/>
    <trip id="273" depart="61296.55" from="gneE146" to="-gneE110"/>
    <trip id="274" depart="61296.90" from="-gneE75" to="gneE92"/>
    <trip id="275" depart="61297.25" from="-gneE199" to="gneE148"/>
    <trip id="276" depart="61297.60" from="gneE20" to="gneE203"/>
    <trip id="277" depart="61297.95" from="gneE212" to="-gneE149"/>
    <trip id="278" depart="61298.30" from="gneE213" to="gneE5"/>
    <trip id="279" depart="61298.65" from="-gneE182" to="gneE64"/>
    <trip id="280" depart="61299.00" from="gneE127" to="gneE118"/>
    <trip id="281" depart="61299.35" from="gneE64" to="gneE63"/>
    <trip id="282" depart="61299.70" from="gneE72" to="gneE107"/>
    <trip id="283" depart="61300.05" from="-gneE117" to="-gneE143"/>
    <trip id="284" depart="61300.40" from="-gneE108" to="-gneE92"/>
    <trip id="285" depart="61300.75" from="-gneE191" to="gneE75"/>
    <trip id="286" depart="61301.10" from="gneE189" to="gneE45"/>
    <trip id="287" depart="61301.45" from="gneE73" to="gneE39"/>
    <trip id="288" depart="61301.80" from="-gneE30" to="-gneE133"/>
    <trip id="289" depart="61302.15" from="-gneE177" to="gneE195"/>
    <trip id="290" depart="61302.50" from="gneE213" to="gneE92"/>
    <trip id="291" depart="61302.85" from="gneE199" to="gneE193"/>
    <trip id="292" depart="61303.20" from="-gneE199" to="gneE27"/>
    <trip id="293" depart="61303.55" from="-gneE65" to="-gneE176"/>
    <trip id="294" depart="61303.90" from="-gneE187" to="gneE118"/>
    <trip id="295" depart="61304.25" from="-gneE176" to="gneE46"/>
    <trip id="296" depart="61304.60" from="gneE16" to="-gneE185"/>
    <trip id="297" depart="61304.95" from="-gneE164" to="gneE160"/>
    <trip id="298" depart="61305.30" from="-gneE207" to="gneE208"/>
    <trip id="299" depart="61305.65" from="-gneE28" to="gneE7"/>
    <trip id="300" depart="61306.00" from="gneE159" to="-gneE27"/>
    <trip id="301" depart="61306.35" from="-gneE48" to="gneE184"/>
    <trip id="302" depart="61306.70" from="-gneE174" to="gneE191"/>
    <trip id="303" depart="61307.05" from="gneE222" to="-gneE31"/>
    <trip id="304" depart="61307.40" from="-gneE132" to="-gneE96"/>
    <trip id="305" depart="61307.75" from="gneE131" to="-gneE104"/>
    <trip id="306" depart="61308.10" from="gneE198" to="-gneE79"/>
    <trip id="307" depart="61308.45" from="-gneE21" to="gneE61"/>
    <trip id="308" depart="61308.80" from="gneE49" to="-gneE142"/>
    <trip id="309" depart="61309.15" from="gneE49" to="-gneE75"/>
    <trip id="310" depart="61309.50" from="gneE219" to="-gneE196"/>
    <trip id="311" depart="61309.85" from="gneE43" to="-gneE192"/>
    <trip id="312" depart="61310.20" from="gneE182" to="-gneE174"/>
    <trip id="313" depart="61310.55" from="gneE24" to="gneE86"/>
    <trip id="314" depart="61310.90" from="-gneE7" to="-gneE123"/>
    <trip id="315" depart="61311.25" from="gneE11" to="gneE127"/>
    <trip id="316" depart="61311.60" from="-gneE96" to="gneE114"/>
    <trip id="317" depart="61311.95" from="-gneE93" to="gneE107"/>
    <trip id="318" depart="61312.30" from="gneE41" to="-gneE185"/>
    <trip id="319" depart="61312.65" from="-gneE48" to="gneE28"/>
    <trip id="320" depart="61313.00" from="-gneE24" to="-gneE39"/>
    <trip id="321" depart="61313.35" from="-gneE133" to="gneE220"/>
    <trip id="322" depart="61313.70" from="-gneE199" to="-gneE36"/>
    <trip id="323" depart="61314.05" from="gneE7" to="gneE129"/>
    <trip id="324" depart="61314.40" from="-gneE39" to="-gneE158"/>
    <trip id="325" depart="61314.75" from="-gneE29" to="gneE132"/>
    <trip id="326" depart="61315.10" from="-gneE139" to="gneE91"/>
    <trip id="327" depart="61315.45" from="-gneE194" to="gneE208"/>
    <trip id="328" depart="61315.80" from="-gneE201" to="-gneE5"/>
    <trip id="329" depart="61316.15" from="-gneE77" to="-gneE56"/>
    <trip id="330" depart="61316.50" from="gneE33" to="gneE7"/>
    <trip id="331" depart="61316.85" from="-gneE219" to="-gneE166"/>
    <trip id="332" depart="61317.20" from="gneE28" to="gneE174"/>
    <trip id="333" depart="61317.55" from="-gneE119" to="gneE58"/>
    <trip id="334" depart="61317.90" from="gneE18" to="-gneE36"/>
    <trip id="335" depart="61318.25" from="-gneE109" to="-gneE176"/>
    <trip id="336" depart="61318.60" from="gneE133" to="gneE183"/>
    <trip id="337" depart="61318.95" from="gneE172" to="-gneE72"/>
    <trip id="338" depart="61319.30" from="gneE212" to="gneE36"/>
    <trip id="339" depart="61319.65" from="-gneE15" to="-gneE193"/>
    <trip id="340" depart="61320.00" from="gneE61" to="-gneE212"/>
    <trip id="341" depart="61320.35" from="gneE106" to="gneE213"/>
    <trip id="342" depart="61320.70" from="gneE201" to="gneE10"/>
    <trip id="343" depart="61321.05" from="gneE118" to="gneE122"/>
    <trip id="344" depart="61321.40" from="-gneE10" to="-gneE166"/>
    <trip id="345" depart="61321.75" from="-gneE109" to="gneE106"/>
    <trip id="346" depart="61322.10" from="gneE63" to="gneE140"/>
    <trip id="347" depart="61322.45" from="-gneE209" to="-gneE36"/>
    <trip id="348" depart="61322.80" from="-gneE195" to="gneE124"/>
    <trip id="349" depart="61323.15" from="-gneE134" to="-gneE164"/>
    <trip id="350" depart="61323.50" from="-gneE203" to="-gneE144"/>
    <trip id="351" depart="61323.85" from="-gneE10" to="gneE189"/>
    <trip id="352" depart="61324.20" from="-gneE106" to="-gneE27"/>
    <trip id="353" depart="61324.55" from="gneE118" to="gneE218"/>
    <trip id="354" depart="61324.90" from="-gneE178" to="-gneE198"/>
    <trip id="355" depart="61325.25" from="-gneE39" to="-gneE28"/>
    <trip id="356" depart="61325.60" from="-gneE183" to="gneE219"/>
    <trip id="357" depart="61325.95" from="gneE126" to="-gneE199"/>
    <trip id="358" depart="61326.30" from="-gneE196" to="gneE111"/>
    <trip id="359" depart="61326.65" from="-gneE184" to="gneE109"/>
    <trip id="360" depart="61327.00" from="gneE63" to="-gneE108"/>
    <trip id="361" depart="61327.35" from="-gneE36" to="gneE7"/>
    <trip id="362" depart="61327.70" from="-gneE42" to="gneE201"/>
    <trip id="363" depart="61328.05" from="gneE207" to="-gneE179"/>
    <trip id="364" depart="61328.40" from="gneE141" to="-gneE140"/>
    <trip id="365" depart="61328.75" from="-gneE194" to="-gneE222"/>
    <trip id="366" depart="61329.10" from="gneE141" to="-gneE191"/>
    <trip id="367" depart="61329.45" from="-gneE208" to="-gneE164"/>
    <trip id="368" depart="61329.80" from="gneE129" to="-gneE191"/>
    <trip id="369" depart="61330.15" from="gneE160" to="-gneE93"/>
    <trip id="370" depart="61330.50" from="-gneE64" to="gneE120"/>
    <trip id="371" depart="61330.85" from="-gneE67" to="gneE184"/>
    <trip id="372" depart="61331.20" from="-gneE100" to="-gneE165"/>
    <trip id="373" depart="61331.55" from="-gneE128" to="-gneE66"/>
    <trip id="374" depart="61331.90" from="gneE33" to="-gneE108"/>
    <trip id="375" depart="61332.25" from="gneE147" to="-gneE214"/>
    <trip id="376" depart="61332.60" from="gneE146" to="gneE190"/>
    <trip id="377" depart="61332.95" from="gneE177" to="-gneE140"/>
    <trip id="378" depart="61333.30" from="gneE178" to="gneE159"/>
    <trip id="379" depart="61333.65" from="gneE218" to="gneE180"/>
    <trip id="380" depart="61334.00" from="-gneE185" to="-gneE31"/>
    <trip id="381" depart="61334.35" from="-gneE20" to="-gneE43"/>
    <trip id="382" depart="61334.70" from="-gneE121" to="gneE16"/>
    <trip id="383" depart="61335.05" from="-gneE215" to="-gneE126"/>
    <trip id="384" depart="61335.40" from="gneE203" to="gneE135"/>
    <trip id="385" depart="61335.75" from="gneE126" to="-gneE149"/>
    <trip id="386" depart="61336.10" from="-gneE79" to="gneE68"/>
    <trip id="387" depart="61336.45" from="-gneE60" to="gneE34"/>
    <trip id="388" depart="61336.80" from="-gneE61" to="-gneE186"/>
    <trip id="389" depart="61337.15" from="-gneE217" to="-gneE169"/>
    <trip id="390" depart="61337.50" from="-gneE108" to="-gneE61"/>
    <trip id="391" depart="61337.85" from="gneE55" to="-gneE14"/>
    <trip id="392" depart="61338.20" from="gneE46" to="-gneE206"/>
    <trip id="393" depart="61338.55" from="-gneE173" to="gneE195"/>
    <trip id="394" depart="61338.90" from="gneE183" to="gneE218"/>
    <trip id="395" depart="61339.25" from="-gneE115" to="-gneE79"/>
    <trip id="396" depart="61339.60" from="-gneE217" to="-gneE18"/>
    <trip id="397" depart="61339.95" from="gneE209" to="gneE110"/>
    <trip id="398" depart="61340.30" from="-gneE159" to="-gneE10"/>
    <trip id="399" depart="61340.65" from="gneE143" to="gneE200"/>
    <trip id="400" depart="61341.00" from="gneE134" to="gneE92"/>
    <trip id="401" depart="61341.35" from="gneE186" to="gneE217"/>
    <trip id="402" depart="61341.70" from="gneE179" to="gneE54"/>
    <trip id="403" depart="61342.05" from="-gneE195" to="-gneE192"/>
    <trip id="404" depart="61342.40" from="gneE60" to="-gneE48"/>
    <trip id="405" depart="61342.75" from="gneE223" to="gneE149"/>
    <trip id="406" depart="61343.10" from="gneE176" to="-gneE35"/>
    <trip id="407" depart="61343.45" from="-gneE117" to="gneE149"/>
    <trip id="408" depart="61343.80" from="gneE107" to="-gneE153"/>
    <trip id="409" depart="61344.15" from="-gneE163" to="-gneE203"/>
    <trip id="410" depart="61344.50" from="gneE119" to="-gneE145"/>
    <trip id="411" depart="61344.85" from="-gneE211" to="-gneE16"/>
    <trip id="412" depart="61345.20" from="gneE199" to="-gneE209"/>
    <trip id="413" depart="61345.55" from="gneE123" to="-gneE27"/>
    <trip id="414" depart="61345.90" from="-gneE209" to="-gneE120"/>
    <trip id="415" depart="61346.25" from="gneE157" to="gneE203"/>
    <trip id="416" depart="61346.60" from="-gneE27" to="gneE21"/>
    <trip id="417" depart="61346.95" from="gneE60" to="-gneE115"/>
    <trip id="418" depart="61347.30" from="-gneE107" to="gneE44"/>
    <trip id="419" depart="61347.65" from="gneE64" to="-gneE197"/>
    <trip id="420" depart="61348.00" from="gneE149" to="gneE146"/>
    <trip id="421" depart="61348.35" from="gneE146" to="-gneE73"/>
    <trip id="422" depart="61348.70" from="gneE142" to="gneE190"/>
    <trip id="423" depart="61349.05" from="-gneE33" to="gneE115"/>
    <trip id="424" depart="61349.40" from="-gneE118" to="gneE133"/>
    <trip id="425" depart="61349.75" from="gneE26" to="gneE203"/>
    <trip id="426" depart="61350.10" from="gneE205" to="-gneE127"/>
    <trip id="427" depart="61350.45" from="gneE142" to="gneE176"/>
    <trip id="428" depart="61350.80" from="gneE104" to="gneE104"/>
    <trip id="429" depart="61351.15" from="-gneE30" to="gneE5"/>
    <trip id="430" depart="61351.50" from="gneE223" to="-gneE10"/>
    <trip id="431" depart="61351.85" from="-gneE124" to="-gneE129"/>
    <trip id="432" depart="61352.20" from="gneE143" to="-gneE165"/>
    <trip id="433" depart="61352.55" from="-gneE39" to="gneE198"/>
    <trip id="434" depart="61352.90" from="-gneE152" to="gneE198"/>
    <trip id="435" depart="61353.25" from="-gneE150" to="gneE126"/>