<?xml version="1.0" encoding="UTF-8"?>

<!-- generated on 12/20/19 21:14:01 by Eclipse SUMO netedit Version 1.4.0
<configuration xmlns:xsi="http://www.w3.org/2001/XMLSchema-instance" xsi:noNamespaceSchemaLocation="http://sumo.dlr.de/xsd/netconvertConfiguration.xsd">

    <output>
        <output-file value="C:\Users\AvisChiu\Desktop\sumo-1.4.0\bin\document\real%20work\bigmac.net.xml"/>
    </output>

    <processing>
        <offset.disable-normalization value="true"/>
    </processing>

    <junctions>
        <no-turnarounds value="true"/>
    </junctions>

    <report>
        <aggregate-warnings value="5"/>
    </report>

</configuration>
-->

<net version="1.3" junctionCornerDetail="5" limitTurnSpeed="5.50" xmlns:xsi="http://www.w3.org/2001/XMLSchema-instance" xsi:noNamespaceSchemaLocation="http://sumo.dlr.de/xsd/net_file.xsd">

    <location netOffset="0.00,0.00" convBoundary="-850.41,107.05,1579.40,2137.93" origBoundary="10000000000.00,10000000000.00,-10000000000.00,-10000000000.00" projParameter="!"/>

    <edge id=":gneJ10_0" function="internal">
        <lane id=":gneJ10_0_0" index="0" speed="6.94" length="9.94" shape="194.31,120.57 191.88,121.00 190.10,122.26 188.96,124.33 188.47,127.21"/>
    </edge>
    <edge id=":gneJ10_1" function="internal">
        <lane id=":gneJ10_1_0" index="0" speed="13.89" length="27.22" shape="194.31,120.57 167.08,120.78"/>
        <lane id=":gneJ10_1_1" index="1" speed="13.89" length="27.22" shape="194.28,117.37 167.06,117.58"/>
        <lane id=":gneJ10_1_2" index="2" speed="13.89" length="27.22" shape="194.25,114.17 167.04,114.38"/>
    </edge>
    <edge id=":gneJ10_4" function="internal">
        <lane id=":gneJ10_4_0" index="0" speed="13.89" length="27.18" shape="166.99,104.78 194.16,104.57"/>
        <lane id=":gneJ10_4_1" index="1" speed="13.89" length="27.18" shape="167.00,107.98 194.19,107.77"/>
        <lane id=":gneJ10_4_2" index="2" speed="13.89" length="27.18" shape="167.02,111.18 194.22,110.97"/>
    </edge>
    <edge id=":gneJ10_7" function="internal">
        <lane id=":gneJ10_7_0" index="0" speed="10.81" length="9.61" shape="167.02,111.18 175.31,112.13 176.44,112.70"/>
    </edge>
    <edge id=":gneJ10_8" function="internal">
        <lane id=":gneJ10_8_0" index="0" speed="10.28" length="8.08" shape="167.02,111.18 173.90,112.12 174.88,112.72"/>
    </edge>
    <edge id=":gneJ10_12" function="internal">
        <lane id=":gneJ10_12_0" index="0" speed="10.81" length="18.27" shape="176.44,112.70 181.11,115.09 184.43,120.07 185.28,127.06"/>
    </edge>
    <edge id=":gneJ10_13" function="internal">
        <lane id=":gneJ10_13_0" index="0" speed="10.28" length="17.07" shape="174.88,112.72 178.71,115.06 181.43,119.98 182.08,126.90"/>
    </edge>
    <edge id=":gneJ10_9" function="internal">
        <lane id=":gneJ10_9_0" index="0" speed="6.39" length="9.04" shape="172.49,126.43 172.26,123.94 171.28,122.17 169.56,121.12 167.08,120.78"/>
    </edge>
    <edge id=":gneJ10_10" function="internal">
        <lane id=":gneJ10_10_0" index="0" speed="11.62" length="29.71" shape="175.69,126.58 177.19,118.41 180.77,112.55 186.44,109.01 194.19,107.77"/>
    </edge>
    <edge id=":gneJ10_11" function="internal">
        <lane id=":gneJ10_11_0" index="0" speed="10.65" length="24.76" shape="178.89,126.74 180.13,119.89 183.10,114.98 187.80,112.01 194.22,110.97"/>
    </edge>
    <edge id=":gneJ102_0" function="internal">
        <lane id=":gneJ102_0_0" index="0" speed="7.05" length="10.13" shape="-353.52,948.94 -356.07,949.37 -357.96,950.62 -359.17,952.66 -359.72,955.52"/>
    </edge>
    <edge id=":gneJ102_1" function="internal">
        <lane id=":gneJ102_1_0" index="0" speed="13.89" length="27.45" shape="-353.52,948.94 -380.97,948.66"/>
    </edge>
    <edge id=":gneJ102_2" function="internal">
        <lane id=":gneJ102_2_0" index="0" speed="9.28" length="10.45" shape="-353.52,948.94 -360.21,948.45 -363.75,947.23"/>
    </edge>
    <edge id=":gneJ102_16" function="internal">
        <lane id=":gneJ102_16_0" index="0" speed="9.28" length="9.35" shape="-363.75,947.23 -364.98,946.81 -367.82,944.01 -368.73,940.06"/>
    </edge>
    <edge id=":gneJ102_3" function="internal">
        <lane id=":gneJ102_3_0" index="0" speed="6.46" length="9.03" shape="-359.13,940.17 -358.81,942.63 -357.77,944.38 -356.02,945.41 -353.56,945.74"/>
    </edge>
    <edge id=":gneJ102_4" function="internal">
        <lane id=":gneJ102_4_0" index="0" speed="13.89" length="15.19" shape="-359.13,940.17 -359.72,955.52"/>
        <lane id=":gneJ102_4_1" index="1" speed="13.89" length="15.19" shape="-362.33,940.13 -362.91,955.31"/>
        <lane id=":gneJ102_4_2" index="2" speed="13.89" length="15.19" shape="-365.53,940.09 -366.11,955.10"/>
    </edge>
    <edge id=":gneJ102_7" function="internal">
        <lane id=":gneJ102_7_0" index="0" speed="9.30" length="5.12" shape="-365.53,940.09 -366.54,944.03 -367.31,944.76"/>
    </edge>
    <edge id=":gneJ102_17" function="internal">
        <lane id=":gneJ102_17_0" index="0" speed="9.30" length="14.71" shape="-367.31,944.76 -369.44,946.77 -374.26,948.31 -380.97,948.66"/>
    </edge>
    <edge id=":gneJ102_8" function="internal">
        <lane id=":gneJ102_8_0" index="0" speed="6.48" length="9.08" shape="-380.87,945.46 -378.38,945.19 -376.60,944.18 -375.51,942.45 -375.13,939.99"/>
    </edge>
    <edge id=":gneJ102_9" function="internal">
        <lane id=":gneJ102_9_0" index="0" speed="13.89" length="27.31" shape="-380.87,945.46 -353.56,945.74"/>
    </edge>
    <edge id=":gneJ102_10" function="internal">
        <lane id=":gneJ102_10_0" index="0" speed="9.26" length="9.16" shape="-380.87,945.46 -374.19,946.25 -371.93,947.15"/>
    </edge>
    <edge id=":gneJ102_18" function="internal">
        <lane id=":gneJ102_18_0" index="0" speed="9.26" length="10.70" shape="-371.93,947.15 -369.50,948.12 -366.81,951.07 -366.11,955.10"/>
    </edge>
    <edge id=":gneJ102_11" function="internal">
        <lane id=":gneJ102_11_0" index="0" speed="6.44" length="9.03" shape="-375.69,954.48 -375.88,952.00 -376.82,950.21 -378.52,949.09 -380.97,948.66"/>
    </edge>
    <edge id=":gneJ102_12" function="internal">
        <lane id=":gneJ102_12_0" index="0" speed="13.89" length="14.68" shape="-375.69,954.48 -375.13,939.99"/>
        <lane id=":gneJ102_12_1" index="1" speed="13.89" length="14.68" shape="-372.49,954.69 -371.93,940.02"/>
        <lane id=":gneJ102_12_2" index="2" speed="13.89" length="14.68" shape="-369.30,954.90 -368.73,940.06"/>
    </edge>
    <edge id=":gneJ102_15" function="internal">
        <lane id=":gneJ102_15_0" index="0" speed="9.70" length="4.90" shape="-369.30,954.90 -368.10,950.96 -367.53,950.42"/>
    </edge>
    <edge id=":gneJ102_19" function="internal">
        <lane id=":gneJ102_19_0" index="0" speed="9.70" length="15.22" shape="-367.53,950.42 -365.07,948.12 -360.23,946.38 -353.56,945.74"/>
    </edge>
    <edge id=":gneJ103_0" function="internal">
        <lane id=":gneJ103_0_0" index="0" speed="6.62" length="9.33" shape="-113.81,946.15 -116.31,946.52 -118.09,947.63 -119.17,949.46 -119.54,952.01"/>
    </edge>
    <edge id=":gneJ103_1" function="internal">
        <lane id=":gneJ103_1_0" index="0" speed="13.89" length="27.33" shape="-113.81,946.15 -141.14,946.37"/>
    </edge>
    <edge id=":gneJ103_2" function="internal">
        <lane id=":gneJ103_2_0" index="0" speed="9.28" length="9.65" shape="-113.81,946.15 -120.50,945.61 -123.27,944.63"/>
    </edge>
    <edge id=":gneJ103_16" function="internal">
        <lane id=":gneJ103_16_0" index="0" speed="9.28" length="10.16" shape="-123.27,944.63 -125.26,943.92 -128.07,941.09 -128.94,937.12"/>
    </edge>
    <edge id=":gneJ103_3" function="internal">
        <lane id=":gneJ103_3_0" index="0" speed="6.45" length="9.03" shape="-119.34,937.33 -119.04,939.80 -118.02,941.56 -116.28,942.61 -113.82,942.95"/>
    </edge>
    <edge id=":gneJ103_4" function="internal">
        <lane id=":gneJ103_4_0" index="0" speed="13.89" length="14.74" shape="-119.34,937.33 -119.54,952.01"/>
        <lane id=":gneJ103_4_1" index="1" speed="13.89" length="14.74" shape="-122.54,937.26 -122.74,952.00"/>
        <lane id=":gneJ103_4_2" index="2" speed="13.89" length="14.74" shape="-125.74,937.19 -125.94,951.98"/>
    </edge>
    <edge id=":gneJ103_7" function="internal">
        <lane id=":gneJ103_7_0" index="0" speed="9.51" length="4.95" shape="-125.74,937.19 -126.77,941.14 -127.40,941.75"/>
    </edge>
    <edge id=":gneJ103_17" function="internal">
        <lane id=":gneJ103_17_0" index="0" speed="9.51" length="14.99" shape="-127.40,941.75 -129.69,943.98 -134.48,945.72 -141.14,946.37"/>
    </edge>
    <edge id=":gneJ103_8" function="internal">
        <lane id=":gneJ103_8_0" index="0" speed="6.78" length="9.63" shape="-141.18,943.17 -138.67,942.75 -136.86,941.59 -135.75,939.66 -135.34,936.98"/>
    </edge>
    <edge id=":gneJ103_9" function="internal">
        <lane id=":gneJ103_9_0" index="0" speed="13.89" length="27.36" shape="-141.18,943.17 -113.82,942.95"/>
    </edge>
    <edge id=":gneJ103_10" function="internal">
        <lane id=":gneJ103_10_0" index="0" speed="9.29" length="9.92" shape="-141.18,943.17 -134.49,943.65 -131.45,944.69"/>
    </edge>
    <edge id=":gneJ103_18" function="internal">
        <lane id=":gneJ103_18_0" index="0" speed="9.29" length="9.83" shape="-131.45,944.69 -129.73,945.28 -126.88,948.05 -125.94,951.98"/>
    </edge>
    <edge id=":gneJ103_11" function="internal">
        <lane id=":gneJ103_11_0" index="0" speed="6.47" length="9.03" shape="-135.54,951.93 -135.88,949.47 -136.93,947.72 -138.68,946.69 -141.14,946.37"/>
    </edge>
    <edge id=":gneJ103_12" function="internal">
        <lane id=":gneJ103_12_0" index="0" speed="13.89" length="14.90" shape="-135.54,951.93 -135.34,936.98"/>
        <lane id=":gneJ103_12_1" index="1" speed="13.89" length="14.90" shape="-132.34,951.94 -132.14,937.05"/>
        <lane id=":gneJ103_12_2" index="2" speed="13.89" length="14.90" shape="-129.14,951.96 -128.94,937.12"/>
    </edge>
    <edge id=":gneJ103_15" function="internal">
        <lane id=":gneJ103_15_0" index="0" speed="9.40" length="5.00" shape="-129.14,951.96 -128.17,948.04 -127.48,947.37"/>
    </edge>
    <edge id=":gneJ103_19" function="internal">
        <lane id=":gneJ103_19_0" index="0" speed="9.40" length="14.84" shape="-127.48,947.37 -125.29,945.23 -120.51,943.54 -113.82,942.95"/>
    </edge>
    <edge id=":gneJ104_0" function="internal">
        <lane id=":gneJ104_0_0" index="0" speed="7.10" length="10.44" shape="139.57,945.33 136.95,945.74 135.02,946.99 133.76,949.11 133.19,952.07"/>
    </edge>
    <edge id=":gneJ104_1" function="internal">
        <lane id=":gneJ104_1_0" index="0" speed="13.89" length="27.68" shape="139.57,945.33 111.89,945.29"/>
    </edge>
    <edge id=":gneJ104_2" function="internal">
        <lane id=":gneJ104_2_0" index="0" speed="9.21" length="9.49" shape="139.57,945.33 132.81,944.69 130.29,943.72"/>
    </edge>
    <edge id=":gneJ104_16" function="internal">
        <lane id=":gneJ104_16_0" index="0" speed="9.21" length="10.63" shape="130.29,943.72 128.09,942.87 125.39,939.86 124.73,935.68"/>
    </edge>
    <edge id=":gneJ104_3" function="internal">
        <lane id=":gneJ104_3_0" index="0" speed="6.37" length="9.04" shape="134.31,936.40 134.48,938.89 135.42,940.68 137.12,941.76 139.59,942.13"/>
    </edge>
    <edge id=":gneJ104_4" function="internal">
        <lane id=":gneJ104_4_0" index="0" speed="13.89" length="15.73" shape="134.31,936.40 133.19,952.07"/>
        <lane id=":gneJ104_4_1" index="1" speed="13.89" length="15.73" shape="131.11,936.16 129.99,951.85"/>
        <lane id=":gneJ104_4_2" index="2" speed="13.89" length="15.73" shape="127.92,935.92 126.80,951.63"/>
    </edge>
    <edge id=":gneJ104_7" function="internal">
        <lane id=":gneJ104_7_0" index="0" speed="9.80" length="5.20" shape="127.92,935.92 126.66,940.00 125.98,940.64"/>
    </edge>
    <edge id=":gneJ104_17" function="internal">
        <lane id=":gneJ104_17_0" index="0" speed="9.80" length="15.33" shape="125.98,940.64 123.57,942.92 118.65,944.68 111.89,945.29"/>
    </edge>
    <edge id=":gneJ104_8" function="internal">
        <lane id=":gneJ104_8_0" index="0" speed="7.19" length="10.58" shape="111.88,942.09 114.52,941.65 116.48,940.36 117.75,938.21 118.35,935.21"/>
    </edge>
    <edge id=":gneJ104_9" function="internal">
        <lane id=":gneJ104_9_0" index="0" speed="13.89" length="27.71" shape="111.88,942.09 139.59,942.13"/>
    </edge>
    <edge id=":gneJ104_10" function="internal">
        <lane id=":gneJ104_10_0" index="0" speed="9.20" length="9.76" shape="111.88,942.09 118.66,942.66 121.43,943.70"/>
    </edge>
    <edge id=":gneJ104_18" function="internal">
        <lane id=":gneJ104_18_0" index="0" speed="9.20" length="10.40" shape="121.43,943.70 123.40,944.44 126.12,947.43 126.80,951.63"/>
    </edge>
    <edge id=":gneJ104_11" function="internal">
        <lane id=":gneJ104_11_0" index="0" speed="6.35" length="9.04" shape="117.22,950.97 117.04,948.48 116.09,946.70 114.37,945.64 111.89,945.29"/>
    </edge>
    <edge id=":gneJ104_12" function="internal">
        <lane id=":gneJ104_12_0" index="0" speed="13.89" length="15.79" shape="117.22,950.97 118.35,935.21"/>
        <lane id=":gneJ104_12_1" index="1" speed="13.89" length="15.79" shape="120.42,951.19 121.54,935.45"/>
        <lane id=":gneJ104_12_2" index="2" speed="13.89" length="15.79" shape="123.61,951.41 124.73,935.68"/>
    </edge>
    <edge id=":gneJ104_15" function="internal">
        <lane id=":gneJ104_15_0" index="0" speed="9.74" length="5.25" shape="123.61,951.41 124.85,947.31 125.55,946.65"/>
    </edge>
    <edge id=":gneJ104_19" function="internal">
        <lane id=":gneJ104_19_0" index="0" speed="9.74" length="15.25" shape="125.55,946.65 127.93,944.40 132.84,942.67 139.59,942.13"/>
    </edge>
    <edge id=":gneJ105_0" function="internal">
        <lane id=":gneJ105_0_0" index="0" speed="7.01" length="10.16" shape="423.58,947.23 421.04,947.63 419.16,948.87 417.95,950.93 417.41,953.83"/>
    </edge>
    <edge id=":gneJ105_1" function="internal">
        <lane id=":gneJ105_1_0" index="0" speed="13.89" length="27.47" shape="423.58,947.23 396.11,947.07"/>
    </edge>
    <edge id=":gneJ105_2" function="internal">
        <lane id=":gneJ105_2_0" index="0" speed="9.29" length="9.83" shape="423.58,947.23 416.90,946.64 413.97,945.58"/>
    </edge>
    <edge id=":gneJ105_16" function="internal">
        <lane id=":gneJ105_16_0" index="0" speed="9.29" length="9.94" shape="413.97,945.58 412.16,944.92 409.36,942.09 408.50,938.15"/>
    </edge>
    <edge id=":gneJ105_3" function="internal">
        <lane id=":gneJ105_3_0" index="0" speed="6.47" length="9.03" shape="418.10,938.38 418.39,940.84 419.41,942.60 421.14,943.67 423.60,944.03"/>
    </edge>
    <edge id=":gneJ105_4" function="internal">
        <lane id=":gneJ105_4_0" index="0" speed="13.89" length="15.34" shape="418.10,938.38 417.41,953.83"/>
        <lane id=":gneJ105_4_1" index="1" speed="13.89" length="15.34" shape="414.90,938.30 414.21,953.63"/>
        <lane id=":gneJ105_4_2" index="2" speed="13.89" length="15.34" shape="411.70,938.22 411.02,953.42"/>
    </edge>
    <edge id=":gneJ105_7" function="internal">
        <lane id=":gneJ105_7_0" index="0" speed="9.46" length="5.09" shape="411.70,938.22 410.65,942.13 409.89,942.84"/>
    </edge>
    <edge id=":gneJ105_17" function="internal">
        <lane id=":gneJ105_17_0" index="0" speed="9.46" length="14.89" shape="409.89,942.84 407.70,944.91 402.85,946.56 396.11,947.07"/>
    </edge>
    <edge id=":gneJ105_8" function="internal">
        <lane id=":gneJ105_8_0" index="0" speed="6.70" length="9.52" shape="396.13,943.87 398.69,943.52 400.54,942.42 401.68,940.58 402.10,937.99"/>
    </edge>
    <edge id=":gneJ105_9" function="internal">
        <lane id=":gneJ105_9_0" index="0" speed="13.89" length="27.46" shape="396.13,943.87 423.60,944.03"/>
    </edge>
    <edge id=":gneJ105_10" function="internal">
        <lane id=":gneJ105_10_0" index="0" speed="9.22" length="9.63" shape="396.13,943.87 402.88,944.51 405.55,945.53"/>
    </edge>
    <edge id=":gneJ105_18" function="internal">
        <lane id=":gneJ105_18_0" index="0" speed="9.22" length="10.42" shape="405.55,945.53 407.60,946.31 410.32,949.28 411.02,953.42"/>
    </edge>
    <edge id=":gneJ105_11" function="internal">
        <lane id=":gneJ105_11_0" index="0" speed="6.38" length="9.04" shape="401.44,952.80 401.24,950.31 400.29,948.52 398.58,947.45 396.11,947.07"/>
    </edge>
    <edge id=":gneJ105_12" function="internal">
        <lane id=":gneJ105_12_0" index="0" speed="13.89" length="14.95" shape="401.44,952.80 402.10,937.99"/>
        <lane id=":gneJ105_12_1" index="1" speed="13.89" length="14.95" shape="404.63,953.00 405.30,938.07"/>
        <lane id=":gneJ105_12_2" index="2" speed="13.89" length="14.95" shape="407.83,953.21 408.50,938.15"/>
    </edge>
    <edge id=":gneJ105_15" function="internal">
        <lane id=":gneJ105_15_0" index="0" speed="9.67" length="5.04" shape="407.83,953.21 409.04,949.17 409.63,948.60"/>
    </edge>
    <edge id=":gneJ105_19" function="internal">
        <lane id=":gneJ105_19_0" index="0" speed="9.67" length="15.20" shape="409.63,948.60 412.07,946.29 416.92,944.58 423.60,944.03"/>
    </edge>
    <edge id=":gneJ106_0" function="internal">
        <lane id=":gneJ106_0_0" index="0" speed="6.60" length="9.27" shape="-364.95,1127.81 -367.52,1128.18 -369.35,1129.24 -370.46,1131.00 -370.83,1133.44"/>
    </edge>
    <edge id=":gneJ106_1" function="internal">
        <lane id=":gneJ106_1_0" index="0" speed="13.89" length="27.43" shape="-364.95,1127.81 -392.37,1127.44"/>
    </edge>
    <edge id=":gneJ106_2" function="internal">
        <lane id=":gneJ106_2_0" index="0" speed="9.20" length="10.21" shape="-364.95,1127.81 -371.72,1127.27 -374.92,1126.08"/>
    </edge>
    <edge id=":gneJ106_16" function="internal">
        <lane id=":gneJ106_16_0" index="0" speed="9.20" length="9.95" shape="-374.92,1126.08 -376.47,1125.50 -379.20,1122.52 -379.90,1118.33"/>
    </edge>
    <edge id=":gneJ106_3" function="internal">
        <lane id=":gneJ106_3_0" index="0" speed="6.35" length="9.04" shape="-370.32,1118.95 -370.13,1121.45 -369.17,1123.22 -367.45,1124.28 -364.97,1124.62"/>
    </edge>
    <edge id=":gneJ106_4" function="internal">
        <lane id=":gneJ106_4_0" index="0" speed="13.89" length="14.70" shape="-370.32,1118.95 -370.83,1133.44"/>
        <lane id=":gneJ106_4_1" index="1" speed="13.89" length="14.70" shape="-373.51,1118.74 -374.03,1133.44"/>
        <lane id=":gneJ106_4_2" index="2" speed="13.89" length="14.70" shape="-376.71,1118.54 -377.23,1133.43"/>
    </edge>
    <edge id=":gneJ106_7" function="internal">
        <lane id=":gneJ106_7_0" index="0" speed="9.54" length="5.03" shape="-376.71,1118.54 -377.92,1122.63 -378.47,1123.16"/>
    </edge>
    <edge id=":gneJ106_17" function="internal">
        <lane id=":gneJ106_17_0" index="0" speed="9.54" length="15.10" shape="-378.47,1123.16 -380.93,1125.48 -385.75,1127.09 -392.37,1127.44"/>
    </edge>
    <edge id=":gneJ106_8" function="internal">
        <lane id=":gneJ106_8_0" index="0" speed="6.83" length="9.84" shape="-392.26,1124.25 -389.81,1123.92 -387.99,1122.76 -386.82,1120.76 -386.29,1117.92"/>
    </edge>
    <edge id=":gneJ106_9" function="internal">
        <lane id=":gneJ106_9_0" index="0" speed="13.89" length="27.29" shape="-392.26,1124.25 -364.97,1124.62"/>
    </edge>
    <edge id=":gneJ106_10" function="internal">
        <lane id=":gneJ106_10_0" index="0" speed="9.42" length="9.29" shape="-392.26,1124.25 -385.68,1125.02 -383.19,1125.97"/>
    </edge>
    <edge id=":gneJ106_18" function="internal">
        <lane id=":gneJ106_18_0" index="0" speed="9.42" length="10.27" shape="-383.19,1125.97 -380.98,1126.81 -378.16,1129.61 -377.23,1133.43"/>
    </edge>
    <edge id=":gneJ106_11" function="internal">
        <lane id=":gneJ106_11_0" index="0" speed="6.64" length="9.22" shape="-386.83,1133.41 -387.17,1130.87 -388.21,1129.03 -389.94,1127.89 -392.37,1127.44"/>
    </edge>
    <edge id=":gneJ106_12" function="internal">
        <lane id=":gneJ106_12_0" index="0" speed="13.89" length="15.30" shape="-386.83,1133.41 -386.29,1117.92"/>
        <lane id=":gneJ106_12_1" index="1" speed="13.89" length="15.30" shape="-383.63,1133.42 -383.09,1118.12"/>
        <lane id=":gneJ106_12_2" index="2" speed="13.89" length="15.30" shape="-380.43,1133.42 -379.90,1118.33"/>
    </edge>
    <edge id=":gneJ106_15" function="internal">
        <lane id=":gneJ106_15_0" index="0" speed="9.40" length="5.01" shape="-380.43,1133.42 -379.46,1129.61 -378.67,1128.87"/>
    </edge>
    <edge id=":gneJ106_19" function="internal">
        <lane id=":gneJ106_19_0" index="0" speed="9.40" length="14.80" shape="-378.67,1128.87 -376.56,1126.88 -371.73,1125.21 -364.97,1124.62"/>
    </edge>
    <edge id=":gneJ107_0" function="internal">
        <lane id=":gneJ107_0_0" index="0" speed="6.57" length="9.20" shape="-136.39,1131.85 -136.77,1129.32 -137.83,1127.51 -139.59,1126.44 -142.05,1126.09"/>
    </edge>
    <edge id=":gneJ107_1" function="internal">
        <lane id=":gneJ107_1_0" index="0" speed="13.89" length="14.63" shape="-136.39,1131.85 -136.43,1117.17"/>
        <lane id=":gneJ107_1_1" index="1" speed="13.89" length="14.63" shape="-133.19,1131.82 -133.23,1117.19"/>
        <lane id=":gneJ107_1_2" index="2" speed="13.89" length="14.63" shape="-129.99,1131.78 -130.03,1117.21"/>
    </edge>
    <edge id=":gneJ107_4" function="internal">
        <lane id=":gneJ107_4_0" index="0" speed="9.29" length="4.98" shape="-129.99,1131.78 -129.08,1127.85 -128.40,1127.19"/>
    </edge>
    <edge id=":gneJ107_16" function="internal">
        <lane id=":gneJ107_16_0" index="0" speed="9.29" length="14.78" shape="-128.40,1127.19 -126.24,1125.06 -121.48,1123.41 -114.79,1122.90"/>
    </edge>
    <edge id=":gneJ107_5" function="internal">
        <lane id=":gneJ107_5_0" index="0" speed="6.47" length="9.03" shape="-114.82,1126.10 -117.28,1126.43 -119.03,1127.47 -120.07,1129.22 -120.39,1131.68"/>
    </edge>
    <edge id=":gneJ107_6" function="internal">
        <lane id=":gneJ107_6_0" index="0" speed="13.89" length="27.23" shape="-114.82,1126.10 -142.05,1126.09"/>
    </edge>
    <edge id=":gneJ107_7" function="internal">
        <lane id=":gneJ107_7_0" index="0" speed="9.34" length="9.70" shape="-114.82,1126.10 -121.49,1125.50 -124.32,1124.50"/>
    </edge>
    <edge id=":gneJ107_17" function="internal">
        <lane id=":gneJ107_17_0" index="0" speed="9.34" length="9.97" shape="-124.32,1124.50 -126.25,1123.81 -129.10,1121.05 -130.03,1117.21"/>
    </edge>
    <edge id=":gneJ107_8" function="internal">
        <lane id=":gneJ107_8_0" index="0" speed="6.53" length="9.09" shape="-120.43,1117.26 -120.09,1119.71 -119.04,1121.47 -117.27,1122.53 -114.79,1122.90"/>
    </edge>
    <edge id=":gneJ107_9" function="internal">
        <lane id=":gneJ107_9_0" index="0" speed="13.89" length="14.48" shape="-120.43,1117.26 -120.39,1131.68"/>
        <lane id=":gneJ107_9_1" index="1" speed="13.89" length="14.48" shape="-123.63,1117.24 -123.59,1131.72"/>
        <lane id=":gneJ107_9_2" index="2" speed="13.89" length="14.48" shape="-126.83,1117.22 -126.79,1131.75"/>
    </edge>
    <edge id=":gneJ107_12" function="internal">
        <lane id=":gneJ107_12_0" index="0" speed="9.37" length="4.82" shape="-126.83,1117.22 -127.80,1121.06 -128.42,1121.66"/>
    </edge>
    <edge id=":gneJ107_18" function="internal">
        <lane id=":gneJ107_18_0" index="0" speed="9.37" length="14.82" shape="-128.42,1121.66 -130.66,1123.82 -135.41,1125.50 -142.05,1126.09"/>
    </edge>
    <edge id=":gneJ107_13" function="internal">
        <lane id=":gneJ107_13_0" index="0" speed="6.57" length="9.14" shape="-142.07,1122.89 -139.61,1122.52 -137.86,1121.44 -136.79,1119.66 -136.43,1117.17"/>
    </edge>
    <edge id=":gneJ107_14" function="internal">
        <lane id=":gneJ107_14_0" index="0" speed="13.89" length="27.28" shape="-142.07,1122.89 -114.79,1122.90"/>
    </edge>
    <edge id=":gneJ107_15" function="internal">
        <lane id=":gneJ107_15_0" index="0" speed="9.36" length="10.01" shape="-142.07,1122.89 -135.42,1123.40 -132.26,1124.50"/>
    </edge>
    <edge id=":gneJ107_19" function="internal">
        <lane id=":gneJ107_19_0" index="0" speed="9.36" length="9.74" shape="-132.26,1124.50 -130.66,1125.05 -127.78,1127.83 -126.79,1131.75"/>
    </edge>
    <edge id=":gneJ108_0" function="internal">
        <lane id=":gneJ108_0_0" index="0" speed="6.68" length="9.45" shape="127.06,1127.83 124.48,1128.21 122.62,1129.30 121.50,1131.11 121.10,1133.63"/>
    </edge>
    <edge id=":gneJ108_1" function="internal">
        <lane id=":gneJ108_1_0" index="0" speed="13.89" length="27.50" shape="127.06,1127.83 99.56,1127.81"/>
    </edge>
    <edge id=":gneJ108_2" function="internal">
        <lane id=":gneJ108_2_0" index="0" speed="9.20" length="9.80" shape="127.06,1127.83 120.28,1127.27 117.47,1126.22"/>
    </edge>
    <edge id=":gneJ108_16" function="internal">
        <lane id=":gneJ108_16_0" index="0" speed="9.20" length="10.38" shape="117.47,1126.22 115.53,1125.50 112.81,1122.51 112.13,1118.30"/>
    </edge>
    <edge id=":gneJ108_3" function="internal">
        <lane id=":gneJ108_3_0" index="0" speed="6.35" length="9.04" shape="121.71,1118.95 121.89,1121.45 122.84,1123.23 124.56,1124.29 127.04,1124.63"/>
    </edge>
    <edge id=":gneJ108_4" function="internal">
        <lane id=":gneJ108_4_0" index="0" speed="13.89" length="14.88" shape="121.71,1118.95 121.10,1133.63"/>
        <lane id=":gneJ108_4_1" index="1" speed="13.89" length="14.88" shape="118.51,1118.74 117.90,1133.60"/>
        <lane id=":gneJ108_4_2" index="2" speed="13.89" length="14.88" shape="115.32,1118.52 114.70,1133.56"/>
    </edge>
    <edge id=":gneJ108_7" function="internal">
        <lane id=":gneJ108_7_0" index="0" speed="9.69" length="5.07" shape="115.32,1118.52 114.09,1122.63 113.53,1123.17"/>
    </edge>
    <edge id=":gneJ108_17" function="internal">
        <lane id=":gneJ108_17_0" index="0" speed="9.69" length="15.25" shape="113.53,1123.17 111.06,1125.55 106.21,1127.28 99.56,1127.81"/>
    </edge>
    <edge id=":gneJ108_8" function="internal">
        <lane id=":gneJ108_8_0" index="0" speed="7.05" length="10.27" shape="99.59,1124.61 102.10,1124.21 103.97,1122.95 105.18,1120.83 105.74,1117.86"/>
    </edge>
    <edge id=":gneJ108_9" function="internal">
        <lane id=":gneJ108_9_0" index="0" speed="13.89" length="27.45" shape="99.59,1124.61 127.04,1124.63"/>
    </edge>
    <edge id=":gneJ108_10" function="internal">
        <lane id=":gneJ108_10_0" index="0" speed="9.32" length="9.65" shape="99.59,1124.61 106.23,1125.22 109.03,1126.22"/>
    </edge>
    <edge id=":gneJ108_18" function="internal">
        <lane id=":gneJ108_18_0" index="0" speed="9.32" length="10.00" shape="109.03,1126.22 110.97,1126.91 113.79,1129.69 114.70,1133.56"/>
    </edge>
    <edge id=":gneJ108_11" function="internal">
        <lane id=":gneJ108_11_0" index="0" speed="6.50" length="9.03" shape="105.10,1133.46 104.78,1131.01 103.75,1129.25 102.01,1128.18 99.56,1127.81"/>
    </edge>
    <edge id=":gneJ108_12" function="internal">
        <lane id=":gneJ108_12_0" index="0" speed="13.89" length="15.43" shape="105.10,1133.46 105.74,1117.86"/>
        <lane id=":gneJ108_12_1" index="1" speed="13.89" length="15.43" shape="108.30,1133.50 108.94,1118.08"/>
        <lane id=":gneJ108_12_2" index="2" speed="13.89" length="15.43" shape="111.50,1133.53 112.13,1118.30"/>
    </edge>
    <edge id=":gneJ108_15" function="internal">
        <lane id=":gneJ108_15_0" index="0" speed="9.45" length="5.06" shape="111.50,1133.53 112.51,1129.67 113.29,1128.93"/>
    </edge>
    <edge id=":gneJ108_19" function="internal">
        <lane id=":gneJ108_19_0" index="0" speed="9.45" length="14.86" shape="113.29,1128.93 115.43,1126.91 120.28,1125.22 127.04,1124.63"/>
    </edge>
    <edge id=":gneJ109_0" function="internal">
        <lane id=":gneJ109_0_0" index="0" speed="6.57" length="9.20" shape="390.42,1131.83 390.04,1129.30 388.97,1127.50 387.21,1126.43 384.76,1126.08"/>
    </edge>
    <edge id=":gneJ109_1" function="internal">
        <lane id=":gneJ109_1_0" index="0" speed="13.89" length="15.52" shape="390.42,1131.83 390.85,1116.07"/>
        <lane id=":gneJ109_1_1" index="1" speed="13.89" length="15.52" shape="393.62,1131.79 394.04,1116.28"/>
        <lane id=":gneJ109_1_2" index="2" speed="13.89" length="15.52" shape="396.82,1131.75 397.24,1116.48"/>
    </edge>
    <edge id=":gneJ109_4" function="internal">
        <lane id=":gneJ109_4_0" index="0" speed="9.33" length="5.16" shape="396.82,1131.75 397.74,1127.83 398.55,1127.03"/>
    </edge>
    <edge id=":gneJ109_16" function="internal">
        <lane id=":gneJ109_16_0" index="0" speed="9.33" length="14.72" shape="398.55,1127.03 400.60,1125.03 405.40,1123.36 412.15,1122.80"/>
    </edge>
    <edge id=":gneJ109_5" function="internal">
        <lane id=":gneJ109_5_0" index="0" speed="6.52" length="9.17" shape="412.15,1126.00 409.62,1126.35 407.82,1127.40 406.75,1129.16 406.42,1131.62"/>
    </edge>
    <edge id=":gneJ109_6" function="internal">
        <lane id=":gneJ109_6_0" index="0" speed="13.89" length="27.39" shape="412.15,1126.00 384.76,1126.08"/>
    </edge>
    <edge id=":gneJ109_7" function="internal">