<routes>
        <vType accel="3.0" decel="6.0" id="CarA" length="5.0" minGap="2.5" maxSpeed="50.0" sigma="0.5" />
  <vType accel="2.0" decel="6.0" id="CarB" length="7.5" minGap="2.5" maxSpeed="50.0" sigma="0.5" />
  <vType accel="1.0" decel="5.0" id="CarC" length="5.0" minGap="2.5" maxSpeed="40.0" sigma="0.5" />
  <vType accel="1.0" decel="5.0" id="CarD" length="7.5" minGap="2.5" maxSpeed="30.0" sigma="0.5" />
  <route id="route01" edges="gneE2 gneE3 "/>
  <route id="route02" edges="-gneE3 -gneE2 "/>
    <vehicle id="veh0" type="CarB" route="route02" depart="0" />
    <vehicle id="veh1" type="CarB" route="route02" depart="2" />
    <vehicle id="veh2" type="CarA" route="route01" depart="3" />
    <vehicle id="veh3" type="CarD" route="route01" depart="4" color="1,0,0"/>
    <vehicle id="veh4" type="CarB" route="route02" depart="10" />
    <vehicle id="veh5" type="CarA" route="route01" depart="11" />
    <vehicle id="veh6" type="CarD" route="route01" depart="16" color="1,0,0"/>
    <vehicle id="veh7" type="CarA" route="route01" depart="22" />
    <vehicle id="veh8" type="CarB" route="route02" depart="22" />
    <vehicle id="veh9" type="CarA" route="route01" depart="25" />
    <vehicle id="veh10" type="CarA" route="route01" depart="31" />
    <vehicle id="veh11" type="CarC" route="route02" depart="31" color="1,0,0"/>
    <vehicle id="veh12" type="CarA" route="route01" depart="34" />
    <vehicle id="veh13" type="CarA" route="route01" depart="40" />
    <vehicle id="veh14" type="CarB" route="route02" depart="41" />
    <vehicle id="veh15" type="CarA" route="route01" depart="44" />
    <vehicle id="veh16" type="CarB" route="route02" depart="49" />
    <vehicle id="veh17" type="CarA" route="route01" depart="56" />
    <vehicle id="veh18" type="CarA" route="route01" depart="63" />
    <vehicle id="veh19" type="CarA" route="route01" depart="64" />
    <vehicle id="veh20" type="CarB" route="route02" depart="67" />
    <vehicle id="veh21" type="CarC" route="route02" depart="72" color="1,0,0"/>
    <vehicle id="veh22" type="CarB" route="route02" depart="74" />
    <vehicle id="veh23" type="CarA" route="route01" depart="81" />
    <vehicle id="veh24" type="CarC" route="route02" depart="85" color="1,0,0"/>
    <vehicle id="veh25" type="CarA" route="route01" depart="92" />
    <vehicle id="veh26" type="CarC" route="route02" depart="98" color="1,0,0"/>
    <vehicle id="veh27" type="CarD" route="route01" depart="103" color="1,0,0"/>
    <vehicle id="veh28" type="CarD" route="route01" depart="106" color="1,0,0"/>
    <vehicle id="veh29" type="CarA" route="route01" depart="115" />
    <vehicle id="veh30" type="CarB" route="route02" depart="117" />
    <vehicle id="veh31" type="CarB" route="route02" depart="120" />
    <vehicle id="veh32" type="CarB" route="route02" depart="123" />
    <vehicle id="veh33" type="CarB" route="route02" depart="125" />
    <vehicle id="veh34" type="CarA" route="route01" depart="126" />
    <vehicle id="veh35" type="CarA" route="route01" depart="127" />
    <vehicle id="veh36" type="CarB" route="route02" depart="129" />
    <vehicle id="veh37" type="CarC" route="route02" depart="129" color="1,0,0"/>
    <vehicle id="veh38" type="CarA" route="route01" depart="132" />
    <vehicle id="veh39" type="CarD" route="route01" depart="135" color="1,0,0"/>
    <vehicle id="veh40" type="CarB" route="route02" depart="137" />
    <vehicle id="veh41" type="CarB" route="route02" depart="147" />
    <vehicle id="veh42" type="CarC" route="route02" depart="149" color="1,0,0"/>
    <vehicle id="veh43" type="CarA" route="route01" depart="150" />
    <vehicle id="veh44" type="CarA" route="route01" depart="152" />
    <vehicle id="veh45" type="CarB" route="route02" depart="159" />
    <vehicle id="veh46" type="CarA" route="route01" depart="164" />
    <vehicle id="veh47" type="CarA" route="route01" depart="171" />
    <vehicle id="veh48" type="CarA" route="route01" depart="179" />
    <vehicle id="veh49" type="CarA" route="route01" depart="180" />
    <vehicle id="veh50" type="CarA" route="route01" depart="182" />
    <vehicle id="veh51" type="CarB" route="route02" depart="204" />
    <vehicle id="veh52" type="CarA" route="route01" depart="213" />
    <vehicle id="veh53" type="CarA" route="route01" depart="216" />
    <vehicle id="veh54" type="CarB" route="route02" depart="218" />
    <vehicle id="veh55" type="CarC" route="route02" depart="220" color="1,0,0"/>
    <vehicle id="veh56" type="CarA" route="route01" depart="227" />
    <vehicle id="veh57" type="CarB" route="route02" depart="232" />
    <vehicle id="veh58" type="CarA" route="route01" depart="239" />
    <vehicle id="veh59" type="CarC" route="route02" depart="241" color="1,0,0"/>
    <vehicle id="veh60" type="CarA" route="route01" depart="245" />
    <vehicle id="veh61" type="CarD" route="route01" depart="248" color="1,0,0"/>
    <vehicle id="veh62" type="CarA" route="route01" depart="250" />
    <vehicle id="veh63" type="CarB" route="route02" depart="253" />
    <vehicle id="veh64" type="CarC" route="route02" depart="256" color="1,0,0"/>
    <vehicle id="veh65" type="CarB" route="route02" depart="258" />
    <vehicle id="veh66" type="CarC" route="route02" depart="258" color="1,0,0"/>
    <vehicle id="veh67" type="CarB" route="route02" depart="262" />
    <vehicle id="veh68" type="CarB" route="route02" depart="265" />
    <vehicle id="veh69" type="CarA" route="route01" depart="266" />
    <vehicle id="veh70" type="CarB" route="route02" depart="281" />
    <vehicle id="veh71" type="CarB" route="route02" depart="283" />
    <vehicle id="veh72" type="CarD" route="route01" depart="284" color="1,0,0"/>
    <vehicle id="veh73" type="CarA" route="route01" depart="287" />
    <vehicle id="veh74" type="CarB" route="route02" depart="287" />
    <vehicle id="veh75" type="CarB" route="route02" depart="291" />
    <vehicle id="veh76" type="CarA" route="route01" depart="292" />
    <vehicle id="veh77" type="CarC" route="route02" depart="293" color="1,0,0"/>
    <vehicle id="veh78" type="CarA" route="route01" depart="296" />
    <vehicle id="veh79" type="CarB" route="route02" depart="296" />
    <vehicle id="veh80" type="CarB" route="route02" depart="298" />
    <vehicle id="veh81" type="CarA" route="route01" depart="309" />
    <vehicle id="veh82" type="CarA" route="route01" depart="310" />
    <vehicle id="veh83" type="CarA" route="route01" depart="311" />
    <vehicle id="veh84" type="CarB" route="route02" depart="315" />
    <vehicle id="veh85" type="CarA" route="route01" depart="320" />
    <vehicle id="veh86" type="CarA" route="route01" depart="329" />
    <vehicle id="veh87" type="CarB" route="route02" depart="343" />
    <vehicle id="veh88" type="CarD" route="route01" depart="344" color="1,0,0"/>
    <vehicle id="veh89" type="CarD" route="route01" depart="347" color="1,0,0"/>
    <vehicle id="veh90" type="CarA" route="route01" depart="348" />
    <vehicle id="veh91" type="CarB" route="route02" depart="350" />
    <vehicle id="veh92" type="CarA" route="route01" depart="352" />
    <vehicle id="veh93" type="CarB" route="route02" depart="354" />
    <vehicle id="veh94" type="CarB" route="route02" depart="357" />
    <vehicle id="veh95" type="CarB" route="route02" depart="359" />
    <vehicle id="veh96" type="CarA" route="route01" depart="363" />
    <vehicle id="veh97" type="CarB" route="route02" depart="369" />
    <vehicle id="veh98" type="CarB" route="route02" depart="372" />
    <vehicle id="veh99" type="CarA" route="route01" depart="374" />
    <vehicle id="veh100" type="CarB" route="route02" depart="376" />
    <vehicle id="veh101" type="CarA" route="route01" depart="389" />
    <vehicle id="veh102" type="CarB" route="route02" depart="392" />
    <vehicle id="veh103" type="CarA" route="route01" depart="402" />
    <vehicle id="veh104" type="CarB" route="route02" depart="402" />
    <vehicle id="veh105" type="CarA" route="route01" depart="406" />
    <vehicle id="veh106" type="CarB" route="route02" depart="406" />
    <vehicle id="veh107" type="CarB" route="route02" depart="414" />
    <vehicle id="veh108" type="CarB" route="route02" depart="430" />
    <vehicle id="veh109" type="CarD" route="route01" depart="433" color="1,0,0"/>
    <vehicle id="veh110" type="CarC" route="route02" depart="434" color="1,0,0"/>
    <vehicle id="veh111" type="CarD" route="route01" depart="451" color="1,0,0"/>
    <vehicle id="veh112" type="CarA" route="route01" depart="459" />
    <vehicle id="veh113" type="CarC" route="route02" depart="468" color="1,0,0"/>
    <vehicle id="veh114" type="CarB" route="route02" depart="469" />
    <vehicle id="veh115" type="CarA" route="route01" depart="477" />
    <vehicle id="veh116" type="CarA" route="route01" depart="481" />
    <vehicle id="veh117" type="CarA" route="route01" depart="483" />
    <vehicle id="veh118" type="CarB" route="route02" depart="484" />
    <vehicle id="veh119" type="CarD" route="route01" depart="484" color="1,0,0"/>
    <vehicle id="veh120" type="CarB" route="route02" depart="490" />
    <vehicle id="veh121" type="CarC" route="route02" depart="490" color="1,0,0"/>
    <vehicle id="veh122" type="CarC" route="route02" depart="494" color="1,0,0"/>
    <vehicle id="veh123" type="CarB" route="route02" depart="495" />
    <vehicle id="veh124" type="CarA" route="route01" depart="496" />
    <vehicle id="veh125" type="CarA" route="route01" depart="501" />
    <vehicle id="veh126" type="CarC" route="route02" depart="512" color="1,0,0"/>
    <vehicle id="veh127" type="CarA" route="route01" depart="517" />
    <vehicle id="veh128" type="CarA" route="route01" depart="528" />
    <vehicle id="veh129" type="CarA" route="route01" depart="530" />
    <vehicle id="veh130" type="CarC" route="route02" depart="530" color="1,0,0"/>
    <vehicle id="veh131" type="CarC" route="route02" depart="531" color="1,0,0"/>
    <vehicle id="veh132" type="CarA" route="route01" depart="533" />
    <vehicle id="veh133" type="CarA" route="route01" depart="538" />
    <vehicle id="veh134" type="CarB" route="route02" depart="538" />
    <vehicle id="veh135" type="CarA" route="route01" depart="540" />
    <vehicle id="veh136" type="CarA" route="route01" depart="542" />
    <vehicle id="veh137" type="CarA" route="route01" depart="543" />
    <vehicle id="veh138" type="CarA" route="route01" depart="545" />
    <vehicle id="veh139" type="CarB" route="route02" depart="548" />
    <vehicle id="veh140" type="CarB" route="route02" depart="550" />
    <vehicle id="veh141" type="CarB" route="route02" depart="555" />
    <vehicle id="veh142" type="CarC" route="route02" depart="557" color="1,0,0"/>
    <vehicle id="veh143" type="CarA" route="route01" depart="558" />
    <vehicle id="veh144" type="CarA" route="route01" depart="562" />
    <vehicle id="veh145" type="CarA" route="route01" depart="563" />
    <vehicle id="veh146" type="CarB" route="route02" depart="576" />
    <vehicle id="veh147" type="CarC" route="route02" depart="582" color="1,0,0"/>
    <vehicle id="veh148" type="CarC" route="route02" depart="585" color="1,0,0"/>
    <vehicle id="veh149" type="CarD" route="route01" depart="593" color="1,0,0"/>
    <vehicle id="veh150" type="CarA" route="route01" depart="596" />
    <vehicle id="veh151" type="CarA" route="route01" depart="601" />
    <vehicle id="veh152" type="CarA" route="route01" depart="606" />
    <vehicle id="veh153" type="CarC" route="route02" depart="606" color="1,0,0"/>
    <vehicle id="veh154" type="CarA" route="route01" depart="609" />
    <vehicle id="veh155" type="CarB" route="route02" depart="609" />
    <vehicle id="veh156" type="CarB" route="route02" depart="613" />
    <vehicle id="veh157" type="CarA" route="route01" depart="629" />
    <vehicle id="veh158" type="CarA" route="route01" depart="634" />
    <vehicle id="veh159" type="CarD" route="route01" depart="635" color="1,0,0"/>
    <vehicle id="veh160" type="CarD" route="route01" depart="640" color="1,0,0"/>
    <vehicle id="veh161" type="CarA" route="route01" depart="642" />
    <vehicle id="veh162" type="CarD" route="route01" depart="646" color="1,0,0"/>
    <vehicle id="veh163" type="CarA" route="route01" depart="649" />
    <vehicle id="veh164" type="CarB" route="route02" depart="651" />
    <vehicle id="veh165" type="CarB" route="route02" depart="659" />
    <vehicle id="veh166" type="CarA" route="route01" depart="660" />
    <vehicle id="veh167" type="CarB" route="route02" depart="660" />
    <vehicle id="veh168" type="CarA" route="route01" depart="662" />
    <vehicle id="veh169" type="CarB" route="route02" depart="665" />
    <vehicle id="veh170" type="CarB" route="route02" depart="666" />
    <vehicle id="veh171" type="CarD" route="route01" depart="671" color="1,0,0"/>
    <vehicle id="veh172" type="CarB" route="route02" depart="673" />
    <vehicle id="veh173" type="CarB" route="route02" depart="676" />
    <vehicle id="veh174" type="CarB" route="route02" depart="680" />
    <vehicle id="veh175" type="CarB" route="route02" depart="682" />
    <vehicle id="veh176" type="CarD" route="route01" depart="683" color="1,0,0"/>
    <vehicle id="veh177" type="CarA" route="route01" depart="687" />
    <vehicle id="veh178" type="CarD" route="route01" depart="688" color="1,0,0"/>
    <vehicle id="veh179" type="CarB" route="route02" depart="693" />
    <vehicle id="veh180" type="CarB" route="route02" depart="694" />
    <vehicle id="veh181" type="CarB" route="route02" depart="697" />
    <vehicle id="veh182" type="CarB" route="route02" depart="704" />
    <vehicle id="veh183" type="CarB" route="route02" depart="706" />
    <vehicle id="veh184" type="CarA" route="route01" depart="709" />
    <vehicle id="veh185" type="CarB" route="route02" depart="709" />
    <vehicle id="veh186" type="CarA" route="route01" depart="711" />
    <vehicle id="veh187" type="CarC" route="route02" depart="712" color="1,0,0"/>
    <vehicle id="veh188" type="CarB" route="route02" depart="714" />
    <vehicle id="veh189" type="CarB" route="route02" depart="721" />
    <vehicle id="veh190" type="CarA" route="route01" depart="724" />
    <vehicle id="veh191" type="CarB" route="route02" depart="727" />
    <vehicle id="veh192" type="CarA" route="route01" depart="730" />
    <vehicle id="veh193" type="CarA" route="route01" depart="731" />
    <vehicle id="veh194" type="CarA" route="route01" depart="733" />
    <vehicle id="veh195" type="CarD" route="route01" depart="741" color="1,0,0"/>
    <vehicle id="veh196" type="CarA" route="route01" depart="745" />
    <vehicle id="veh197" type="CarC" route="route02" depart="747" color="1,0,0"/>
    <vehicle id="veh198" type="CarA" route="route01" depart="751" />
    <vehicle id="veh199" type="CarB" route="route02" depart="752" />
    <vehicle id="veh200" type="CarD" route="route01" depart="754" color="1,0,0"/>
    <vehicle id="veh201" type="CarB" route="route02" depart="758" />
    <vehicle id="veh202" type="CarD" route="route01" depart="760" color="1,0,0"/>
    <vehicle id="veh203" type="CarA" route="route01" depart="763" />
    <vehicle id="veh204" type="CarB" route="route02" depart="766" />
    <vehicle id="veh205" type="CarB" route="route02" depart="782" />
    <vehicle id="veh206" type="CarB" route="route02" depart="785" />
    <vehicle id="veh207" type="CarC" route="route02" depart="792" color="1,0,0"/>
    <vehicle id="veh208" type="CarD" route="route01" depart="795" color="1,0,0"/>
    <vehicle id="veh209" type="CarA" route="route01" depart="801" />
    <vehicle id="veh210" type="CarD" route="route01" depart="801" color="1,0,0"/>
    <vehicle id="veh211" type="CarD" route="route01" depart="802" color="1,0,0"/>
    <vehicle id="veh212" type="CarA" route="route01" depart="814" />
    <vehicle id="veh213" type="CarA" route="route01" depart="823" />
    <vehicle id="veh214" type="CarB" route="route02" depart="828" />
    <vehicle id="veh215" type="CarA" route="route01" depart="830" />
    <vehicle id="veh216" type="CarB" route="route02" depart="832" />
    <vehicle id="veh217" type="CarB" route="route02" depart="841" />
    <vehicle id="veh218" type="CarB" route="route02" depart="842" />
    <vehicle id="veh219" type="CarB" route="route02" depart="843" />
    <vehicle id="veh220" type="CarB" route="route02" depart="850" />
    <vehicle id="veh221" type="CarC" route="route02" depart="851" color="1,0,0"/>
    <vehicle id="veh222" type="CarA" route="route01" depart="853" />
    <vehicle id="veh223" type="CarA" route="route01" depart="857" />
    <vehicle id="veh224" type="CarB" route="route02" depart="865" />
    <vehicle id="veh225" type="CarB" route="route02" depart="867" />
    <vehicle id="veh226" type="CarB" route="route02" depart="874" />
    <vehicle id="veh227" type="CarB" route="route02" depart="875" />
    <vehicle id="veh228" type="CarB" route="route02" depart="879" />
    <vehicle id="veh229" type="CarA" route="route01" depart="886" />
    <vehicle id="veh230" type="CarB" route="route02" depart="892" />
    <vehicle id="veh231" type="CarA" route="route01" depart="906" />
    <vehicle id="veh232" type="CarA" route="route01" depart="909" />
    <vehicle id="veh233" type="CarD" route="route01" depart="913" color="1,0,0"/>
    <vehicle id="veh234" type="CarB" route="route02" depart="924" />
    <vehicle id="veh235" type="CarA" route="route01" depart="928" />
    <vehicle id="veh236" type="CarD" route="route01" depart="934" color="1,0,0"/>
    <vehicle id="veh237" type="CarA" route="route01" depart="935" />
    <vehicle id="veh238" type="CarA" route="route01" depart="939" />
    <vehicle id="veh239" type="CarB" route="route02" depart="939" />
    <vehicle id="veh240" type="CarC" route="route02" depart="941" color="1,0,0"/>
    <vehicle id="veh241" type="CarB" route="route02" depart="950" />
    <vehicle id="veh242" type="CarB" route="route02" depart="956" />
    <vehicle id="veh243" type="CarA" route="route01" depart="961" />
    <vehicle id="veh244" type="CarB" route="route02" depart="966" />
    <vehicle id="veh245" type="CarD" route="route01" depart="966" color="1,0,0"/>
    <vehicle id="veh246" type="CarB" route="route02" depart="967" />
    <vehicle id="veh247" type="CarA" route="route01" depart="976" />
    <vehicle id="veh248" type="CarA" route="route01" depart="978" />
    <vehicle id="veh249" type="CarB" route="route02" depart="988" />
    <vehicle id="veh250" type="CarA" route="route01" depart="990" />
    <vehicle id="veh251" type="CarC" route="route02" depart="991" color="1,0,0"/>
    <vehicle id="veh252" type="CarB" route="route02" depart="999" />
    <vehicle id="veh253" type="CarA" route="route01" depart="1005" />
    <vehicle id="veh254" type="CarB" route="route02" depart="1008" />
    <vehicle id="veh255" type="CarD" route="route01" depart="1017" color="1,0,0"/>
    <vehicle id="veh256" type="CarA" route="route01" depart="1018" />
    <vehicle id="veh257" type="CarA" route="route01" depart="1019" />
    <vehicle id="veh258" type="CarB" route="route02" depart="1025" />
    <vehicle id="veh259" type="CarB" route="route02" depart="1031" />
    <vehicle id="veh260" type="CarC" route="route02" depart="1035" color="1,0,0"/>
    <vehicle id="veh261" type="CarA" route="route01" depart="1036" />
    <vehicle id="veh262" type="CarA" route="route01" depart="1038" />
    <vehicle id="veh263" type="CarA" route="route01" depart="1049" />
    <vehicle id="veh264" type="CarA" route="route01" depart="1052" />
    <vehicle id="veh265" type="CarA" route="route01" depart="1065" />
    <vehicle id="veh266" type="CarA" route="route01" depart="1071" />
    <vehicle id="veh267" type="CarD" route="route01" depart="1074" color="1,0,0"/>
    <vehicle id="veh268" type="CarA" route="route01" depart="1076" />
    <vehicle id="veh269" type="CarC" route="route02" depart="1077" color="1,0,0"/>
    <vehicle id="veh270" type="CarB" route="route02" depart="1078" />
    <vehicle id="veh271" type="CarA" route="route01" depart="1081" />
    <vehicle id="veh272" type="CarC" route="route02" depart="1087" color="1,0,0"/>
    <vehicle id="veh273" type="CarD" route="route01" depart="1088" color="1,0,0"/>
    <vehicle id="veh274" type="CarD" route="route01" depart="1089" color="1,0,0"/>
    <vehicle id="veh275" type="CarD" route="route01" depart="1090" color="1,0,0"/>
    <vehicle id="veh276" type="CarD" route="route01" depart="1097" color="1,0,0"/>
    <vehicle id="veh277" type="CarA" route="route01" depart="1098" />
    <vehicle id="veh278" type="CarB" route="route02" depart="1103" />
    <vehicle id="veh279" type="CarB" route="route02" depart="1106" />
    <vehicle id="veh280" type="CarD" route="route01" depart="1112" color="1,0,0"/>
    <vehicle id="veh281" type="CarA" route="route01" depart="1113" />
    <vehicle id="veh282" type="CarB" route="route02" depart="1114" />
    <vehicle id="veh283" type="CarA" route="route01" depart="1116" />
    <vehicle id="veh284" type="CarA" route="route01" depart="1123" />
    <vehicle id="veh285" type="CarB" route="route02" depart="1124" />
    <vehicle id="veh286" type="CarB" route="route02" depart="1125" />
    <vehicle id="veh287" type="CarB" route="route02" depart="1129" />
    <vehicle id="veh288" type="CarA" route="route01" depart="1133" />
    <vehicle id="veh289" type="CarB" route="route02" depart="1134" />
    <vehicle id="veh290" type="CarA" route="route01" depart="1137" />
    <vehicle id="veh291" type="CarA" route="route01" depart="1138" />
    <vehicle id="veh292" type="CarB" route="route02" depart="1150" />
    <vehicle id="veh293" type="CarB" route="route02" depart="1152" />
    <vehicle id="veh294" type="CarA" route="route01" depart="1154" />
    <vehicle id="veh295" type="CarA" route="route01" depart="1158" />
    <vehicle id="veh296" type="CarC" route="route02" depart="1160" color="1,0,0"/>
    <vehicle id="veh297" type="CarB" route="route02" depart="1165" />
    <vehicle id="veh298" type="CarB" route="route02" depart="1166" />
    <vehicle id="veh299" type="CarB" route="route02" depart="1169" />
    <vehicle id="veh300" type="CarB" route="route02" depart="1170" />
    <vehicle id="veh301" type="CarD" route="route01" depart="1171" color="1,0,0"/>
    <vehicle id="veh302" type="CarB" route="route02" depart="1175" />
    <vehicle id="veh303" type="CarC" route="route02" depart="1176" color="1,0,0"/>
    <vehicle id="veh304" type="CarC" route="route02" depart="1177" color="1,0,0"/>
    <vehicle id="veh305" type="CarA" route="route01" depart="1180" />
    <vehicle id="veh306" type="CarA" route="route01" depart="1182" />
    <vehicle id="veh307" type="CarC" route="route02" depart="1182" color="1,0,0"/>
    <vehicle id="veh308" type="CarA" route="route01" depart="1184" />
    <vehicle id="veh309" type="CarC" route="route02" depart="1187" color="1,0,0"/>
    <vehicle id="veh310" type="CarD" route="route01" depart="1191" color="1,0,0"/>
    <vehicle id="veh311" type="CarB" route="route02" depart="1193" />
    <vehicle id="veh312" type="CarA" route="route01" depart="1209" />
    <vehicle id="veh313" type="CarC" route="route02" depart="1209" color="1,0,0"/>
    <vehicle id="veh314" type="CarA" route="route01" depart="1211" />
    <vehicle id="veh315" type="CarB" route="route02" depart="1213" />
    <vehicle id="veh316" type="CarB" route="route02" depart="1234" />
    <vehicle id="veh317" type="CarB" route="route02" depart="1238" />
    <vehicle id="veh318" type="CarB" route="route02" depart="1252" />
    <vehicle id="veh319" type="CarC" route="route02" depart="1252" color="1,0,0"/>
    <vehicle id="veh320" type="CarA" route="route01" depart="1255" />
    <vehicle id="veh321" type="CarD" route="route01" depart="1256" color="1,0,0"/>
    <vehicle id="veh322" type="CarA" route="route01" depart="1258" />
    <vehicle id="veh323" type="CarA" route="route01" depart="1265" />
    <vehicle id="veh324" type="CarD" route="route01" depart="1267" color="1,0,0"/>
    <vehicle id="veh325" type="CarA" route="route01" depart="1271" />
    <vehicle id="veh326" type="CarC" route="route02" depart="1275" color="1,0,0"/>
    <vehicle id="veh327" type="CarA" route="route01" depart="1277" />
    <vehicle id="veh328" type="CarD" route="route01" depart="1280" color="1,0,0"/>
    <vehicle id="veh329" type="CarB" route="route02" depart="1283" />
    <vehicle id="veh330" type="CarB" route="route02" depart="1285" />
    <vehicle id="veh331" type="CarA" route="route01" depart="1294" />
    <vehicle id="veh332" type="CarA" route="route01" depart="1304" />
    <vehicle id="veh333" type="CarA" route="route01" depart="1307" />
    <vehicle id="veh334" type="CarA" route="route01" depart="1311" />
    <vehicle id="veh335" type="CarB" route="route02" depart="1311" />
    <vehicle id="veh336" type="CarA" route="route01" depart="1313" />
    <vehicle id="veh337" type="CarA" route="route01" depart="1319" />
    <vehicle id="veh338" type="CarB" route="route02" depart="1320" />
    <vehicle id="veh339" type="CarA" route="route01" depart="1329" />
    <vehicle id="veh340" type="CarA" route="route01" depart="1330" />
    <vehicle id="veh341" type="CarA" route="route01" depart="1331" />
    <vehicle id="veh342" type="CarA" route="route01" depart="1335" />
    <vehicle id="veh343" type="CarA" route="route01" depart="1337" />
    <vehicle id="veh344" type="CarD" route="route01" depart="1338" color="1,0,0"/>
    <vehicle id="veh345" type="CarA" route="route01" depart="1342" />
    <vehicle id="veh346" type="CarD" route="route01" depart="1348" color="1,0,0"/>
    <vehicle id="veh347" type="CarB" route="route02" depart="1350" />
    <vehicle id="veh348" type="CarA" route="route01" depart="1356" />
    <vehicle id="veh349" type="CarD" route="route01" depart="1357" color="1,0,0"/>
    <vehicle id="veh350" type="CarA" route="route01" depart="1358" />
    <vehicle id="veh351" type="CarA" route="route01" depart="1375" />
    <vehicle id="veh352" type="CarB" route="route02" depart="1385" />
    <vehicle id="veh353" type="CarA" route="route01" depart="1386" />
    <vehicle id="veh354" type="CarA" route="route01" depart="1399" />
    <vehicle id="veh355" type="CarA" route="route01" depart="1400" />
    <vehicle id="veh356" type="CarC" route="route02" depart="1400" color="1,0,0"/>
    <vehicle id="veh357" type="CarA" route="route01" depart="1401" />
    <vehicle id="veh358" type="CarB" route="route02" depart="1404" />
    <vehicle id="veh359" type="CarA" route="route01" depart="1406" />
    <vehicle id="veh360" type="CarA" route="route01" depart="1407" />
    <vehicle id="veh361" type="CarB" route="route02" depart="1421" />
    <vehicle id="veh362" type="CarD" route="route01" depart="1428" color="1,0,0"/>
    <vehicle id="veh363" type="CarB" route="route02" depart="1429" />
    <vehicle id="veh364" type="CarA" route="route01" depart="1430" />
    <vehicle id="veh365" type="CarA" route="route01" depart="1432" />
    <vehicle id="veh366" type="CarA" route="route01" depart="1435" />
    <vehicle id="veh367" type="CarB" route="route02" depart="1438" />
    <vehicle id="veh368" type="CarA" route="route01" depart="1440" />
    <vehicle id="veh369" type="CarB" route="route02" depart="1443" />
    <vehicle id="veh370" type="CarA" route="route01" depart="1451" />
    <vehicle id="veh371" type="CarA" route="route01" depart="1465" />
    <vehicle id="veh372" type="CarD" route="route01" depart="1469" color="1,0,0"/>
    <vehicle id="veh373" type="CarB" route="route02" depart="1477" />
    <vehicle id="veh374" type="CarB" route="route02" depart="1478" />
    <vehicle id="veh375" type="CarB" route="route02" depart="1482" />
    <vehicle id="veh376" type="CarB" route="route02" depart="1485" />
    <vehicle id="veh377" type="CarB" route="route02" depart="1487" />
    <vehicle id="veh378" type="CarA" route="route01" depart="1490" />
    <vehicle id="veh379" type="CarC" route="route02" depart="1491" color="1,0,0"/>
    <vehicle id="veh380" type="CarD" route="route01" depart="1491" color="1,0,0"/>
    <vehicle id="veh381" type="CarB" route="route02" depart="1495" />
    <vehicle id="veh382" type="CarB" route="route02" depart="1505" />
    <vehicle id="veh383" type="CarA" route="route01" depart="1510" />
    <vehicle id="veh384" type="CarA" route="route01" depart="1513" />
    <vehicle id="veh385" type="CarA" route="route01" depart="1515" />
    <vehicle id="veh386" type="CarB" route="route02" depart="1518" />
    <vehicle id="veh387" type="CarA" route="route01" depart="1523" />
    <vehicle id="veh388" type="CarC" route="route02" depart="1523" color="1,0,0"/>
    <vehicle id="veh389" type="CarA" route="route01" depart="1536" />
    <vehicle id="veh390" type="CarD" route="route01" depart="1549" color="1,0,0"/>
    <vehicle id="veh391" type="CarC" route="route02" depart="1551" color="1,0,0"/>
    <vehicle id="veh392" type="CarC" route="route02" depart="1557" color="1,0,0"/>
    <vehicle id="veh393" type="CarD" route="route01" depart="1558" color="1,0,0"/>
    <vehicle id="veh394" type="CarC" route="route02" depart="1562" color="1,0,0"/>
    <vehicle id="veh395" type="CarA" route="route01" depart="1571" />
    <vehicle id="veh396" type="CarA" route="route01" depart="1572" />
    <vehicle id="veh397" type="CarA" route="route01" depart="1576" />
    <vehicle id="veh398" type="CarA" route="route01" depart="1582" />
    <vehicle id="veh399" type="CarA" route="route01" depart="1586" />
    <vehicle id="veh400" type="CarC" route="route02" depart="1588" color="1,0,0"/>
    <vehicle id="veh401" type="CarA" route="route01" depart="1589" />
    <vehicle id="veh402" type="CarD" route="route01" depart="1600" color="1,0,0"/>