<additional xmlns:xsi="http://www.w3.org/2001/XMLSchema-instance" xsi:noNamespaceSchemaLocation="http://sumo.dlr.de/xsd/additional_file.xsd">
    <e1Detector file="e1output.xml" freq="150" friendlyPos="x" id="e1det_-gneE10_0" lane="-gneE10_0" pos="270.1"/>
    <e1Detector file="e1output.xml" freq="150" friendlyPos="x" id="e1det_-gneE10_1" lane="-gneE10_1" pos="270.1"/>
    <e1Detector file="e1output.xml" freq="150" friendlyPos="x" id="e1det_-gneE10_2" lane="-gneE10_2" pos="270.1"/>
    <e1Detector file="e1output.xml" freq="150" friendlyPos="x" id="e1det_gneE86_0" lane="gneE86_0" pos="201.45"/>
    <e1Detector file="e1output.xml" freq="150" friendlyPos="x" id="e1det_gneE86_1" lane="gneE86_1" pos="201.45"/>
    <e1Detector file="e1output.xml" freq="150" friendlyPos="x" id="e1det_gneE86_2" lane="gneE86_2" pos="201.45"/>
    <e1Detector file="e1output.xml" freq="150" friendlyPos="x" id="e1det_gneE9_0" lane="gneE9_0" pos="263.56"/>
    <e1Detector file="e1output.xml" freq="150" friendlyPos="x" id="e1det_gneE9_1" lane="gneE9_1" pos="263.56"/>
    <e1Detector file="e1output.xml" freq="150" friendlyPos="x" id="e1det_gneE9_2" lane="gneE9_2" pos="263.56"/>
    <e1Detector file="e1output.xml" freq="150" friendlyPos="x" id="e1det_-gneE100_0" lane="-gneE100_0" pos="287.68"/>
    <e1Detector file="e1output.xml" freq="150" friendlyPos="x" id="e1det_-gneE93_0" lane="-gneE93_0" pos="173.72"/>
    <e1Detector file="e1output.xml" freq="150" friendlyPos="x" id="e1det_-gneE93_1" lane="-gneE93_1" pos="173.72"/>
    <e1Detector file="e1output.xml" freq="150" friendlyPos="x" id="e1det_-gneE93_2" lane="-gneE93_2" pos="173.72"/>
    <e1Detector file="e1output.xml" freq="150" friendlyPos="x" id="e1det_gneE135_0" lane="gneE135_0" pos="199.7"/>
    <e1Detector file="e1output.xml" freq="150" friendlyPos="x" id="e1det_gneE135_1" lane="gneE135_1" pos="199.7"/>
    <e1Detector file="e1output.xml" freq="150" friendlyPos="x" id="e1det_gneE135_2" lane="gneE135_2" pos="199.7"/>
    <e1Detector file="e1output.xml" freq="150" friendlyPos="x" id="e1det_gneE92_0" lane="gneE92_0" pos="281.18"/>
    <e1Detector file="e1output.xml" freq="150" friendlyPos="x" id="e1det_-gneE101_0" lane="-gneE101_0" pos="173.35"/>
    <e1Detector file="e1output.xml" freq="150" friendlyPos="x" id="e1det_-gneE101_1" lane="-gneE101_1" pos="173.35"/>
    <e1Detector file="e1output.xml" freq="150" friendlyPos="x" id="e1det_-gneE101_2" lane="-gneE101_2" pos="173.35"/>
    <e1Detector file="e1output.xml" freq="150" friendlyPos="x" id="e1det_-gneE107_0" lane="-gneE107_0" pos="241.48"/>
    <e1Detector file="e1output.xml" freq="150" friendlyPos="x" id="e1det_gneE100_0" lane="gneE100_0" pos="287.68"/>
    <e1Detector file="e1output.xml" freq="150" friendlyPos="x" id="e1det_gneE222_0" lane="gneE222_0" pos="193.4"/>
    <e1Detector file="e1output.xml" freq="150" friendlyPos="x" id="e1det_gneE222_1" lane="gneE222_1" pos="193.4"/>
    <e1Detector file="e1output.xml" freq="150" friendlyPos="x" id="e1det_gneE222_2" lane="gneE222_2" pos="193.4"/>
    <e1Detector file="e1output.xml" freq="150" friendlyPos="x" id="e1det_-gneE103_0" lane="-gneE103_0" pos="257.26"/>
    <e1Detector file="e1output.xml" freq="150" friendlyPos="x" id="e1det_-gneE96_0" lane="-gneE96_0" pos="202.88"/>
    <e1Detector file="e1output.xml" freq="150" friendlyPos="x" id="e1det_-gneE96_1" lane="-gneE96_1" pos="202.88"/>
    <e1Detector file="e1output.xml" freq="150" friendlyPos="x" id="e1det_-gneE96_2" lane="-gneE96_2" pos="202.88"/>
    <e1Detector file="e1output.xml" freq="150" friendlyPos="x" id="e1det_gneE95_0" lane="gneE95_0" pos="275.45"/>
    <e1Detector file="e1output.xml" freq="150" friendlyPos="x" id="e1det_gneE99_0" lane="gneE99_0" pos="192.8"/>
    <e1Detector file="e1output.xml" freq="150" friendlyPos="x" id="e1det_gneE99_1" lane="gneE99_1" pos="192.8"/>
    <e1Detector file="e1output.xml" freq="150" friendlyPos="x" id="e1det_gneE99_2" lane="gneE99_2" pos="192.8"/>
    <e1Detector file="e1output.xml" freq="150" friendlyPos="x" id="e1det_-gneE104_0" lane="-gneE104_0" pos="198.24"/>
    <e1Detector file="e1output.xml" freq="150" friendlyPos="x" id="e1det_-gneE104_1" lane="-gneE104_1" pos="198.24"/>
    <e1Detector file="e1output.xml" freq="150" friendlyPos="x" id="e1det_-gneE104_2" lane="-gneE104_2" pos="198.24"/>
    <e1Detector file="e1output.xml" freq="150" friendlyPos="x" id="e1det_-gneE109_0" lane="-gneE109_0" pos="228.56"/>
    <e1Detector file="e1output.xml" freq="150" friendlyPos="x" id="e1det_gneE103_0" lane="gneE103_0" pos="257.26"/>
    <e1Detector file="e1output.xml" freq="150" friendlyPos="x" id="e1det_gneE106_0" lane="gneE106_0" pos="197.55"/>
    <e1Detector file="e1output.xml" freq="150" friendlyPos="x" id="e1det_gneE106_1" lane="gneE106_1" pos="197.55"/>
    <e1Detector file="e1output.xml" freq="150" friendlyPos="x" id="e1det_gneE106_2" lane="gneE106_2" pos="197.55"/>
    <e1Detector file="e1output.xml" freq="150" friendlyPos="x" id="e1det_-gneE105_0" lane="-gneE105_0" pos="246.07"/>
    <e1Detector file="e1output.xml" freq="150" friendlyPos="x" id="e1det_-gneE99_0" lane="-gneE99_0" pos="192.8"/>
    <e1Detector file="e1output.xml" freq="150" friendlyPos="x" id="e1det_-gneE99_1" lane="-gneE99_1" pos="192.8"/>
    <e1Detector file="e1output.xml" freq="150" friendlyPos="x" id="e1det_-gneE99_2" lane="-gneE99_2" pos="192.8"/>
    <e1Detector file="e1output.xml" freq="150" friendlyPos="x" id="e1det_gneE101_0" lane="gneE101_0" pos="173.35"/>
    <e1Detector file="e1output.xml" freq="150" friendlyPos="x" id="e1det_gneE101_1" lane="gneE101_1" pos="173.35"/>
    <e1Detector file="e1output.xml" freq="150" friendlyPos="x" id="e1det_gneE101_2" lane="gneE101_2" pos="173.35"/>
    <e1Detector file="e1output.xml" freq="150" friendlyPos="x" id="e1det_gneE98_0" lane="gneE98_0" pos="283.66"/>
    <e1Detector file="e1output.xml" freq="150" friendlyPos="x" id="e1det_-gneE106_0" lane="-gneE106_0" pos="197.55"/>
    <e1Detector file="e1output.xml" freq="150" friendlyPos="x" id="e1det_-gneE106_1" lane="-gneE106_1" pos="197.55"/>
    <e1Detector file="e1output.xml" freq="150" friendlyPos="x" id="e1det_-gneE106_2" lane="-gneE106_2" pos="197.55"/>
    <e1Detector file="e1output.xml" freq="150" friendlyPos="x" id="e1det_-gneE111_0" lane="-gneE111_0" pos="225.41"/>
    <e1Detector file="e1output.xml" freq="150" friendlyPos="x" id="e1det_gneE105_0" lane="gneE105_0" pos="246.07"/>
    <e1Detector file="e1output.xml" freq="150" friendlyPos="x" id="e1det_gneE108_0" lane="gneE108_0" pos="167.25"/>
    <e1Detector file="e1output.xml" freq="150" friendlyPos="x" id="e1det_gneE108_1" lane="gneE108_1" pos="167.25"/>
    <e1Detector file="e1output.xml" freq="150" friendlyPos="x" id="e1det_gneE108_2" lane="gneE108_2" pos="167.25"/>
    <e1Detector file="e1output.xml" freq="150" friendlyPos="x" id="e1det_-gneE108_0" lane="-gneE108_0" pos="167.25"/>
    <e1Detector file="e1output.xml" freq="150" friendlyPos="x" id="e1det_-gneE108_1" lane="-gneE108_1" pos="167.25"/>
    <e1Detector file="e1output.xml" freq="150" friendlyPos="x" id="e1det_-gneE108_2" lane="-gneE108_2" pos="167.25"/>
    <e1Detector file="e1output.xml" freq="150" friendlyPos="x" id="e1det_-gneE115_0" lane="-gneE115_0" pos="217.26"/>
    <e1Detector file="e1output.xml" freq="150" friendlyPos="x" id="e1det_gneE107_0" lane="gneE107_0" pos="241.48"/>
    <e1Detector file="e1output.xml" freq="150" friendlyPos="x" id="e1det_gneE139_0" lane="gneE139_0" pos="200.5"/>
    <e1Detector file="e1output.xml" freq="150" friendlyPos="x" id="e1det_gneE139_1" lane="gneE139_1" pos="200.5"/>
    <e1Detector file="e1output.xml" freq="150" friendlyPos="x" id="e1det_gneE139_2" lane="gneE139_2" pos="200.5"/>
    <e1Detector file="e1output.xml" freq="150" friendlyPos="x" id="e1det_-gneE11_0" lane="-gneE11_0" pos="252.92"/>
    <e1Detector file="e1output.xml" freq="150" friendlyPos="x" id="e1det_-gneE11_1" lane="-gneE11_1" pos="252.92"/>
    <e1Detector file="e1output.xml" freq="150" friendlyPos="x" id="e1det_-gneE11_2" lane="-gneE11_2" pos="252.92"/>
    <e1Detector file="e1output.xml" freq="150" friendlyPos="x" id="e1det_gneE10_0" lane="gneE10_0" pos="270.1"/>
    <e1Detector file="e1output.xml" freq="150" friendlyPos="x" id="e1det_gneE10_1" lane="gneE10_1" pos="270.1"/>
    <e1Detector file="e1output.xml" freq="150" friendlyPos="x" id="e1det_gneE10_2" lane="gneE10_2" pos="270.1"/>
    <e1Detector file="e1output.xml" freq="150" friendlyPos="x" id="e1det_gneE96_0" lane="gneE96_0" pos="202.88"/>
    <e1Detector file="e1output.xml" freq="150" friendlyPos="x" id="e1det_gneE96_1" lane="gneE96_1" pos="202.88"/>
    <e1Detector file="e1output.xml" freq="150" friendlyPos="x" id="e1det_gneE96_2" lane="gneE96_2" pos="202.88"/>
    <e1Detector file="e1output.xml" freq="150" friendlyPos="x" id="e1det_-gneE110_0" lane="-gneE110_0" pos="200.74"/>
    <e1Detector file="e1output.xml" freq="150" friendlyPos="x" id="e1det_-gneE110_1" lane="-gneE110_1" pos="200.74"/>
    <e1Detector file="e1output.xml" freq="150" friendlyPos="x" id="e1det_-gneE110_2" lane="-gneE110_2" pos="200.74"/>
    <e1Detector file="e1output.xml" freq="150" friendlyPos="x" id="e1det_gneE109_0" lane="gneE109_0" pos="228.56"/>
    <e1Detector file="e1output.xml" freq="150" friendlyPos="x" id="e1det_gneE114_0" lane="gneE114_0" pos="203.22"/>
    <e1Detector file="e1output.xml" freq="150" friendlyPos="x" id="e1det_gneE114_1" lane="gneE114_1" pos="203.22"/>
    <e1Detector file="e1output.xml" freq="150" friendlyPos="x" id="e1det_gneE114_2" lane="gneE114_2" pos="203.22"/>
    <e1Detector file="e1output.xml" freq="150" friendlyPos="x" id="e1det_-gneE114_0" lane="-gneE114_0" pos="203.22"/>
    <e1Detector file="e1output.xml" freq="150" friendlyPos="x" id="e1det_-gneE114_1" lane="-gneE114_1" pos="203.22"/>
    <e1Detector file="e1output.xml" freq="150" friendlyPos="x" id="e1det_-gneE114_2" lane="-gneE114_2" pos="203.22"/>
    <e1Detector file="e1output.xml" freq="150" friendlyPos="x" id="e1det_gneE111_0" lane="gneE111_0" pos="225.41"/>
    <e1Detector file="e1output.xml" freq="150" friendlyPos="x" id="e1det_gneE117_0" lane="gneE117_0" pos="166.09"/>
    <e1Detector file="e1output.xml" freq="150" friendlyPos="x" id="e1det_gneE117_1" lane="gneE117_1" pos="166.09"/>
    <e1Detector file="e1output.xml" freq="150" friendlyPos="x" id="e1det_gneE117_2" lane="gneE117_2" pos="166.09"/>
    <e1Detector file="e1output.xml" freq="150" friendlyPos="x" id="e1det_-gneE117_0" lane="-gneE117_0" pos="166.09"/>
    <e1Detector file="e1output.xml" freq="150" friendlyPos="x" id="e1det_-gneE117_1" lane="-gneE117_1" pos="166.09"/>
    <e1Detector file="e1output.xml" freq="150" friendlyPos="x" id="e1det_-gneE117_2" lane="-gneE117_2" pos="166.09"/>
    <e1Detector file="e1output.xml" freq="150" friendlyPos="x" id="e1det_gneE115_0" lane="gneE115_0" pos="217.26"/>
    <e1Detector file="e1output.xml" freq="150" friendlyPos="x" id="e1det_gneE141_0" lane="gneE141_0" pos="200.03"/>
    <e1Detector file="e1output.xml" freq="150" friendlyPos="x" id="e1det_gneE141_1" lane="gneE141_1" pos="200.03"/>
    <e1Detector file="e1output.xml" freq="150" friendlyPos="x" id="e1det_gneE141_2" lane="gneE141_2" pos="200.03"/>
    <e1Detector file="e1output.xml" freq="150" friendlyPos="x" id="e1det_-gneE118_0" lane="-gneE118_0" pos="201.21"/>
    <e1Detector file="e1output.xml" freq="150" friendlyPos="x" id="e1det_gneE35_0" lane="gneE35_0" pos="200.08"/>
    <e1Detector file="e1output.xml" freq="150" friendlyPos="x" id="e1det_gneE36_0" lane="gneE36_0" pos="197.45"/>
    <e1Detector file="e1output.xml" freq="150" friendlyPos="x" id="e1det_gneE36_1" lane="gneE36_1" pos="197.45"/>
    <e1Detector file="e1output.xml" freq="150" friendlyPos="x" id="e1det_gneE36_2" lane="gneE36_2" pos="197.45"/>
    <e1Detector file="e1output.xml" freq="150" friendlyPos="x" id="e1det_gneE39_0" lane="gneE39_0" pos="163.86"/>
    <e1Detector file="e1output.xml" freq="150" friendlyPos="x" id="e1det_gneE39_1" lane="gneE39_1" pos="163.86"/>
    <e1Detector file="e1output.xml" freq="150" friendlyPos="x" id="e1det_gneE39_2" lane="gneE39_2" pos="163.86"/>
    <e1Detector file="e1output.xml" freq="150" friendlyPos="x" id="e1det_-gneE119_0" lane="-gneE119_0" pos="207.12"/>
    <e1Detector file="e1output.xml" freq="150" friendlyPos="x" id="e1det_-gneE119_1" lane="-gneE119_1" pos="207.12"/>
    <e1Detector file="e1output.xml" freq="150" friendlyPos="x" id="e1det_-gneE119_2" lane="-gneE119_2" pos="207.12"/>
    <e1Detector file="e1output.xml" freq="150" friendlyPos="x" id="e1det_-gneE120_0" lane="-gneE120_0" pos="212.3"/>
    <e1Detector file="e1output.xml" freq="150" friendlyPos="x" id="e1det_gneE118_0" lane="gneE118_0" pos="201.21"/>
    <e1Detector file="e1output.xml" freq="150" friendlyPos="x" id="e1det_gneE127_0" lane="gneE127_0" pos="163.68"/>
    <e1Detector file="e1output.xml" freq="150" friendlyPos="x" id="e1det_gneE127_1" lane="gneE127_1" pos="163.68"/>
    <e1Detector file="e1output.xml" freq="150" friendlyPos="x" id="e1det_gneE127_2" lane="gneE127_2" pos="163.68"/>
    <e1Detector file="e1output.xml" freq="150" friendlyPos="x" id="e1det_-gneE121_0" lane="-gneE121_0" pos="202.89"/>
    <e1Detector file="e1output.xml" freq="150" friendlyPos="x" id="e1det_-gneE121_1" lane="-gneE121_1" pos="202.89"/>
    <e1Detector file="e1output.xml" freq="150" friendlyPos="x" id="e1det_-gneE121_2" lane="-gneE121_2" pos="202.89"/>
    <e1Detector file="e1output.xml" freq="150" friendlyPos="x" id="e1det_-gneE122_0" lane="-gneE122_0" pos="225.61"/>
    <e1Detector file="e1output.xml" freq="150" friendlyPos="x" id="e1det_gneE120_0" lane="gneE120_0" pos="212.3"/>
    <e1Detector file="e1output.xml" freq="150" friendlyPos="x" id="e1det_gneE129_0" lane="gneE129_0" pos="165.15"/>
    <e1Detector file="e1output.xml" freq="150" friendlyPos="x" id="e1det_gneE129_1" lane="gneE129_1" pos="165.15"/>
    <e1Detector file="e1output.xml" freq="150" friendlyPos="x" id="e1det_gneE129_2" lane="gneE129_2" pos="165.15"/>
    <e1Detector file="e1output.xml" freq="150" friendlyPos="x" id="e1det_-gneE123_0" lane="-gneE123_0" pos="202.86"/>
    <e1Detector file="e1output.xml" freq="150" friendlyPos="x" id="e1det_-gneE123_1" lane="-gneE123_1" pos="202.86"/>
    <e1Detector file="e1output.xml" freq="150" friendlyPos="x" id="e1det_-gneE123_2" lane="-gneE123_2" pos="202.86"/>
    <e1Detector file="e1output.xml" freq="150" friendlyPos="x" id="e1det_-gneE124_0" lane="-gneE124_0" pos="256.45"/>
    <e1Detector file="e1output.xml" freq="150" friendlyPos="x" id="e1det_gneE122_0" lane="gneE122_0" pos="225.61"/>
    <e1Detector file="e1output.xml" freq="150" friendlyPos="x" id="e1det_gneE131_0" lane="gneE131_0" pos="167.18"/>
    <e1Detector file="e1output.xml" freq="150" friendlyPos="x" id="e1det_gneE131_1" lane="gneE131_1" pos="167.18"/>
    <e1Detector file="e1output.xml" freq="150" friendlyPos="x" id="e1det_gneE131_2" lane="gneE131_2" pos="167.18"/>
    <e1Detector file="e1output.xml" freq="150" friendlyPos="x" id="e1det_-gneE125_0" lane="-gneE125_0" pos="199.8"/>
    <e1Detector file="e1output.xml" freq="150" friendlyPos="x" id="e1det_-gneE125_1" lane="-gneE125_1" pos="199.8"/>
    <e1Detector file="e1output.xml" freq="150" friendlyPos="x" id="e1det_-gneE125_2" lane="-gneE125_2" pos="199.8"/>
    <e1Detector file="e1output.xml" freq="150" friendlyPos="x" id="e1det_-gneE134_0" lane="-gneE134_0" pos="272.97"/>
    <e1Detector file="e1output.xml" freq="150" friendlyPos="x" id="e1det_gneE124_0" lane="gneE124_0" pos="256.45"/>
    <e1Detector file="e1output.xml" freq="150" friendlyPos="x" id="e1det_gneE133_0" lane="gneE133_0" pos="163.51"/>
    <e1Detector file="e1output.xml" freq="150" friendlyPos="x" id="e1det_gneE133_1" lane="gneE133_1" pos="163.51"/>
    <e1Detector file="e1output.xml" freq="150" friendlyPos="x" id="e1det_gneE133_2" lane="gneE133_2" pos="163.51"/>
    <e1Detector file="e1output.xml" freq="150" friendlyPos="x" id="e1det_-gneE126_0" lane="-gneE126_0" pos="196.89"/>
    <e1Detector file="e1output.xml" freq="150" friendlyPos="x" id="e1det_-gneE39_0" lane="-gneE39_0" pos="163.86"/>
    <e1Detector file="e1output.xml" freq="150" friendlyPos="x" id="e1det_-gneE39_1" lane="-gneE39_1" pos="163.86"/>
    <e1Detector file="e1output.xml" freq="150" friendlyPos="x" id="e1det_-gneE39_2" lane="-gneE39_2" pos="163.86"/>
    <e1Detector file="e1output.xml" freq="150" friendlyPos="x" id="e1det_gneE38_0" lane="gneE38_0" pos="195.46"/>
    <e1Detector file="e1output.xml" freq="150" friendlyPos="x" id="e1det_gneE42_0" lane="gneE42_0" pos="211.38"/>
    <e1Detector file="e1output.xml" freq="150" friendlyPos="x" id="e1det_gneE42_1" lane="gneE42_1" pos="211.38"/>
    <e1Detector file="e1output.xml" freq="150" friendlyPos="x" id="e1det_gneE42_2" lane="gneE42_2" pos="211.38"/>
    <e1Detector file="e1output.xml" freq="150" friendlyPos="x" id="e1det_-gneE127_0" lane="-gneE127_0" pos="163.68"/>
    <e1Detector file="e1output.xml" freq="150" friendlyPos="x" id="e1det_-gneE127_1" lane="-gneE127_1" pos="163.68"/>
    <e1Detector file="e1output.xml" freq="150" friendlyPos="x" id="e1det_-gneE127_2" lane="-gneE127_2" pos="163.68"/>
    <e1Detector file="e1output.xml" freq="150" friendlyPos="x" id="e1det_-gneE128_0" lane="-gneE128_0" pos="222.81"/>
    <e1Detector file="e1output.xml" freq="150" friendlyPos="x" id="e1det_gneE126_0" lane="gneE126_0" pos="196.89"/>
    <e1Detector file="e1output.xml" freq="150" friendlyPos="x" id="e1det_gneE151_0" lane="gneE151_0" pos="196.08"/>
    <e1Detector file="e1output.xml" freq="150" friendlyPos="x" id="e1det_gneE151_1" lane="gneE151_1" pos="196.08"/>
    <e1Detector file="e1output.xml" freq="150" friendlyPos="x" id="e1det_gneE151_2" lane="gneE151_2" pos="196.08"/>
    <e1Detector file="e1output.xml" freq="150" friendlyPos="x" id="e1det_-gneE129_0" lane="-gneE129_0" pos="165.15"/>
    <e1Detector file="e1output.xml" freq="150" friendlyPos="x" id="e1det_-gneE129_1" lane="-gneE129_1" pos="165.15"/>
    <e1Detector file="e1output.xml" freq="150" friendlyPos="x" id="e1det_-gneE129_2" lane="-gneE129_2" pos="165.15"/>
    <e1Detector file="e1output.xml" freq="150" friendlyPos="x" id="e1det_-gneE130_0" lane="-gneE130_0" pos="214.29"/>
    <e1Detector file="e1output.xml" freq="150" friendlyPos="x" id="e1det_gneE128_0" lane="gneE128_0" pos="222.81"/>
    <e1Detector file="e1output.xml" freq="150" friendlyPos="x" id="e1det_gneE153_0" lane="gneE153_0" pos="200.62"/>
    <e1Detector file="e1output.xml" freq="150" friendlyPos="x" id="e1det_gneE153_1" lane="gneE153_1" pos="200.62"/>
    <e1Detector file="e1output.xml" freq="150" friendlyPos="x" id="e1det_gneE153_2" lane="gneE153_2" pos="200.62"/>
    <e1Detector file="e1output.xml" freq="150" friendlyPos="x" id="e1det_-gneE131_0" lane="-gneE131_0" pos="167.18"/>
    <e1Detector file="e1output.xml" freq="150" friendlyPos="x" id="e1det_-gneE131_1" lane="-gneE131_1" pos="167.18"/>
    <e1Detector file="e1output.xml" freq="150" friendlyPos="x" id="e1det_-gneE131_2" lane="-gneE131_2" pos="167.18"/>
    <e1Detector file="e1output.xml" freq="150" friendlyPos="x" id="e1det_-gneE132_0" lane="-gneE132_0" pos="257.6"/>
    <e1Detector file="e1output.xml" freq="150" friendlyPos="x" id="e1det_gneE130_0" lane="gneE130_0" pos="214.29"/>
    <e1Detector file="e1output.xml" freq="150" friendlyPos="x" id="e1det_gneE221_0" lane="gneE221_0" pos="202.03"/>
    <e1Detector file="e1output.xml" freq="150" friendlyPos="x" id="e1det_gneE221_1" lane="gneE221_1" pos="202.03"/>
    <e1Detector file="e1output.xml" freq="150" friendlyPos="x" id="e1det_gneE221_2" lane="gneE221_2" pos="202.03"/>
    <e1Detector file="e1output.xml" freq="150" friendlyPos="x" id="e1det_-gneE133_0" lane="-gneE133_0" pos="163.51"/>
    <e1Detector file="e1output.xml" freq="150" friendlyPos="x" id="e1det_-gneE133_1" lane="-gneE133_1" pos="163.51"/>
    <e1Detector file="e1output.xml" freq="150" friendlyPos="x" id="e1det_-gneE133_2" lane="-gneE133_2" pos="163.51"/>
    <e1Detector file="e1output.xml" freq="150" friendlyPos="x" id="e1det_-gneE142_0" lane="-gneE142_0" pos="270.71"/>
    <e1Detector file="e1output.xml" freq="150" friendlyPos="x" id="e1det_gneE132_0" lane="gneE132_0" pos="257.6"/>
    <e1Detector file="e1output.xml" freq="150" friendlyPos="x" id="e1det_gneE157_0" lane="gneE157_0" pos="197.78"/>
    <e1Detector file="e1output.xml" freq="150" friendlyPos="x" id="e1det_gneE157_1" lane="gneE157_1" pos="197.78"/>
    <e1Detector file="e1output.xml" freq="150" friendlyPos="x" id="e1det_gneE157_2" lane="gneE157_2" pos="197.78"/>
    <e1Detector file="e1output.xml" freq="150" friendlyPos="x" id="e1det_-gneE135_0" lane="-gneE135_0" pos="199.7"/>
    <e1Detector file="e1output.xml" freq="150" friendlyPos="x" id="e1det_-gneE135_1" lane="-gneE135_1" pos="199.7"/>
    <e1Detector file="e1output.xml" freq="150" friendlyPos="x" id="e1det_-gneE135_2" lane="-gneE135_2" pos="199.7"/>
    <e1Detector file="e1output.xml" freq="150" friendlyPos="x" id="e1det_-gneE136_0" lane="-gneE136_0" pos="298.63"/>
    <e1Detector file="e1output.xml" freq="150" friendlyPos="x" id="e1det_gneE134_0" lane="gneE134_0" pos="272.97"/>
    <e1Detector file="e1output.xml" freq="150" friendlyPos="x" id="e1det_gneE143_0" lane="gneE143_0" pos="162.54"/>
    <e1Detector file="e1output.xml" freq="150" friendlyPos="x" id="e1det_gneE143_1" lane="gneE143_1" pos="162.54"/>
    <e1Detector file="e1output.xml" freq="150" friendlyPos="x" id="e1det_gneE143_2" lane="gneE143_2" pos="162.54"/>
    <e1Detector file="e1output.xml" freq="150" friendlyPos="x" id="e1det_-gneE138_0" lane="-gneE138_0" pos="240.55"/>
    <e1Detector file="e1output.xml" freq="150" friendlyPos="x" id="e1det_-gneE222_0" lane="-gneE222_0" pos="193.4"/>
    <e1Detector file="e1output.xml" freq="150" friendlyPos="x" id="e1det_-gneE222_1" lane="-gneE222_1" pos="193.4"/>
    <e1Detector file="e1output.xml" freq="150" friendlyPos="x" id="e1det_-gneE222_2" lane="-gneE222_2" pos="193.4"/>
    <e1Detector file="e1output.xml" freq="150" friendlyPos="x" id="e1det_gneE136_0" lane="gneE136_0" pos="298.63"/>
    <e1Detector file="e1output.xml" freq="150" friendlyPos="x" id="e1det_gneE145_0" lane="gneE145_0" pos="176.61"/>
    <e1Detector file="e1output.xml" freq="150" friendlyPos="x" id="e1det_gneE145_1" lane="gneE145_1" pos="176.61"/>
    <e1Detector file="e1output.xml" freq="150" friendlyPos="x" id="e1det_gneE145_2" lane="gneE145_2" pos="176.61"/>
    <e1Detector file="e1output.xml" freq="150" friendlyPos="x" id="e1det_-gneE139_0" lane="-gneE139_0" pos="200.5"/>
    <e1Detector file="e1output.xml" freq="150" friendlyPos="x" id="e1det_-gneE139_1" lane="-gneE139_1" pos="200.5"/>
    <e1Detector file="e1output.xml" freq="150" friendlyPos="x" id="e1det_-gneE139_2" lane="-gneE139_2" pos="200.5"/>
    <e1Detector file="e1output.xml" freq="150" friendlyPos="x" id="e1det_-gneE140_0" lane="-gneE140_0" pos="222.81"/>
    <e1Detector file="e1output.xml" freq="150" friendlyPos="x" id="e1det_gneE138_0" lane="gneE138_0" pos="240.55"/>
    <e1Detector file="e1output.xml" freq="150" friendlyPos="x" id="e1det_gneE147_0" lane="gneE147_0" pos="172.42"/>
    <e1Detector file="e1output.xml" freq="150" friendlyPos="x" id="e1det_gneE147_1" lane="gneE147_1" pos="172.42"/>
    <e1Detector file="e1output.xml" freq="150" friendlyPos="x" id="e1det_gneE147_2" lane="gneE147_2" pos="172.42"/>
    <e1Detector file="e1output.xml" freq="150" friendlyPos="x" id="e1det_-gneE14_0" lane="-gneE14_0" pos="201.43"/>
    <e1Detector file="e1output.xml" freq="150" friendlyPos="x" id="e1det_-gneE14_1" lane="-gneE14_1" pos="201.43"/>
    <e1Detector file="e1output.xml" freq="150" friendlyPos="x" id="e1det_-gneE14_2" lane="-gneE14_2" pos="201.43"/>
    <e1Detector file="e1output.xml" freq="150" friendlyPos="x" id="e1det_-gneE4_0" lane="-gneE4_0" pos="236.41"/>
    <e1Detector file="e1output.xml" freq="150" friendlyPos="x" id="e1det_-gneE4_1" lane="-gneE4_1" pos="236.41"/>
    <e1Detector file="e1output.xml" freq="150" friendlyPos="x" id="e1det_-gneE4_2" lane="-gneE4_2" pos="236.41"/>
    <e1Detector file="e1output.xml" freq="150" friendlyPos="x" id="e1det_gneE51_0" lane="gneE51_0" pos="198.92"/>
    <e1Detector file="e1output.xml" freq="150" friendlyPos="x" id="e1det_gneE51_1" lane="gneE51_1" pos="198.92"/>
    <e1Detector file="e1output.xml" freq="150" friendlyPos="x" id="e1det_gneE51_2" lane="gneE51_2" pos="198.92"/>
    <e1Detector file="e1output.xml" freq="150" friendlyPos="x" id="e1det_-gneE141_0" lane="-gneE141_0" pos="200.03"/>
    <e1Detector file="e1output.xml" freq="150" friendlyPos="x" id="e1det_-gneE141_1" lane="-gneE141_1" pos="200.03"/>
    <e1Detector file="e1output.xml" freq="150" friendlyPos="x" id="e1det_-gneE141_2" lane="-gneE141_2" pos="200.03"/>
    <e1Detector file="e1output.xml" freq="150" friendlyPos="x" id="e1det_gneE140_0" lane="gneE140_0" pos="222.81"/>
    <e1Detector file="e1output.xml" freq="150" friendlyPos="x" id="e1det_gneE149_0" lane="gneE149_0" pos="171.54"/>
    <e1Detector file="e1output.xml" freq="150" friendlyPos="x" id="e1det_gneE149_1" lane="gneE149_1" pos="171.54"/>
    <e1Detector file="e1output.xml" freq="150" friendlyPos="x" id="e1det_gneE149_2" lane="gneE149_2" pos="171.54"/>
    <e1Detector file="e1output.xml" freq="150" friendlyPos="x" id="e1det_-gneE143_0" lane="-gneE143_0" pos="162.54"/>
    <e1Detector file="e1output.xml" freq="150" friendlyPos="x" id="e1det_-gneE143_1" lane="-gneE143_1" pos="162.54"/>
    <e1Detector file="e1output.xml" freq="150" friendlyPos="x" id="e1det_-gneE143_2" lane="-gneE143_2" pos="162.54"/>
    <e1Detector file="e1output.xml" freq="150" friendlyPos="x" id="e1det_-gneE144_0" lane="-gneE144_0" pos="308.15"/>
    <e1Detector file="e1output.xml" freq="150" friendlyPos="x" id="e1det_gneE142_0" lane="gneE142_0" pos="270.71"/>
    <e1Detector file="e1output.xml" freq="150" friendlyPos="x" id="e1det_gneE159_0" lane="gneE159_0" pos="201.04"/>
    <e1Detector file="e1output.xml" freq="150" friendlyPos="x" id="e1det_gneE159_1" lane="gneE159_1" pos="201.04"/>
    <e1Detector file="e1output.xml" freq="150" friendlyPos="x" id="e1det_gneE159_2" lane="gneE159_2" pos="201.04"/>
    <e1Detector file="e1output.xml" freq="150" friendlyPos="x" id="e1det_-gneE145_0" lane="-gneE145_0" pos="176.61"/>
    <e1Detector file="e1output.xml" freq="150" friendlyPos="x" id="e1det_-gneE145_1" lane="-gneE145_1" pos="176.61"/>
    <e1Detector file="e1output.xml" freq="150" friendlyPos="x" id="e1det_-gneE145_2" lane="-gneE145_2" pos="176.61"/>
    <e1Detector file="e1output.xml" freq="150" friendlyPos="x" id="e1det_-gneE146_0" lane="-gneE146_0" pos="243.8"/>
    <e1Detector file="e1output.xml" freq="150" friendlyPos="x" id="e1det_gneE144_0" lane="gneE144_0" pos="308.15"/>
    <e1Detector file="e1output.xml" freq="150" friendlyPos="x" id="e1det_gneE163_0" lane="gneE163_0" pos="191.73"/>
    <e1Detector file="e1output.xml" freq="150" friendlyPos="x" id="e1det_gneE163_1" lane="gneE163_1" pos="191.73"/>
    <e1Detector file="e1output.xml" freq="150" friendlyPos="x" id="e1det_gneE163_2" lane="gneE163_2" pos="191.73"/>
    <e1Detector file="e1output.xml" freq="150" friendlyPos="x" id="e1det_-gneE147_0" lane="-gneE147_0" pos="172.42"/>
    <e1Detector file="e1output.xml" freq="150" friendlyPos="x" id="e1det_-gneE147_1" lane="-gneE147_1" pos="172.42"/>
    <e1Detector file="e1output.xml" freq="150" friendlyPos="x" id="e1det_-gneE147_2" lane="-gneE147_2" pos="172.42"/>
    <e1Detector file="e1output.xml" freq="150" friendlyPos="x" id="e1det_-gneE148_0" lane="-gneE148_0" pos="220.42"/>
    <e1Detector file="e1output.xml" freq="150" friendlyPos="x" id="e1det_gneE146_0" lane="gneE146_0" pos="243.8"/>
    <e1Detector file="e1output.xml" freq="150" friendlyPos="x" id="e1det_gneE165_0" lane="gneE165_0" pos="194.05"/>
    <e1Detector file="e1output.xml" freq="150" friendlyPos="x" id="e1det_gneE165_1" lane="gneE165_1" pos="194.05"/>
    <e1Detector file="e1output.xml" freq="150" friendlyPos="x" id="e1det_gneE165_2" lane="gneE165_2" pos="194.05"/>
    <e1Detector file="e1output.xml" freq="150" friendlyPos="x" id="e1det_-gneE149_0" lane="-gneE149_0" pos="171.54"/>
    <e1Detector file="e1output.xml" freq="150" friendlyPos="x" id="e1det_-gneE149_1" lane="-gneE149_1" pos="171.54"/>
    <e1Detector file="e1output.xml" freq="150" friendlyPos="x" id="e1det_-gneE149_2" lane="-gneE149_2" pos="171.54"/>
    <e1Detector file="e1output.xml" freq="150" friendlyPos="x" id="e1det_gneE148_0" lane="gneE148_0" pos="220.42"/>
    <e1Detector file="e1output.xml" freq="150" friendlyPos="x" id="e1det_gneE167_0" lane="gneE167_0" pos="193.35"/>
    <e1Detector file="e1output.xml" freq="150" friendlyPos="x" id="e1det_gneE167_1" lane="gneE167_1" pos="193.35"/>
    <e1Detector file="e1output.xml" freq="150" friendlyPos="x" id="e1det_gneE167_2" lane="gneE167_2" pos="193.35"/>
    <e1Detector file="e1output.xml" freq="150" friendlyPos="x" id="e1det_-gneE15_0" lane="-gneE15_0" pos="195.65"/>
    <e1Detector file="e1output.xml" freq="150" friendlyPos="x" id="e1det_-gneE15_1" lane="-gneE15_1" pos="195.65"/>
    <e1Detector file="e1output.xml" freq="150" friendlyPos="x" id="e1det_-gneE15_2" lane="-gneE15_2" pos="195.65"/>
    <e1Detector file="e1output.xml" freq="150" friendlyPos="x" id="e1det_gneE14_0" lane="gneE14_0" pos="201.43"/>
    <e1Detector file="e1output.xml" freq="150" friendlyPos="x" id="e1det_gneE14_1" lane="gneE14_1" pos="201.43"/>
    <e1Detector file="e1output.xml" freq="150" friendlyPos="x" id="e1det_gneE14_2" lane="gneE14_2" pos="201.43"/>
    <e1Detector file="e1output.xml" freq="150" friendlyPos="x" id="e1det_gneE29_0" lane="gneE29_0" pos="199.05"/>
    <e1Detector file="e1output.xml" freq="150" friendlyPos="x" id="e1det_gneE29_1" lane="gneE29_1" pos="199.05"/>