<?xml version="1.0" encoding="UTF-8"?>
<!-- generated on 2019-12-21 19:43:01.216000 by randomTrips.py v1_4_0+0000-d7c9afb42e
  options: -n bigmac.net.xml -r bigmac.rou.xml -e 7200 -l -p 0.4
-->
<routes xmlns:xsi="http://www.w3.org/2001/XMLSchema-instance" xsi:noNamespaceSchemaLocation="http://sumo.dlr.de/xsd/routes_file.xsd">
    <trip id="0" depart="0.00" from="-gneE207" to="-gneE31"/>
    <trip id="1" depart="0.40" from="-gneE172" to="-gneE91"/>
    <trip id="2" depart="0.80" from="-gneE25" to="-gneE128"/>
    <trip id="3" depart="1.20" from="gneE214" to="gneE148"/>
    <trip id="4" depart="1.60" from="gneE222" to="-gneE22"/>
    <trip id="5" depart="2.00" from="-gneE67" to="gneE52"/>
    <trip id="6" depart="2.40" from="gneE143" to="-gneE136"/>
    <trip id="7" depart="2.80" from="-gneE198" to="gneE92"/>
    <trip id="8" depart="3.20" from="gneE21" to="gneE22"/>
    <trip id="9" depart="3.60" from="-gneE164" to="-gneE195"/>
    <trip id="10" depart="4.00" from="-gneE144" to="-gneE105"/>
    <trip id="11" depart="4.40" from="-gneE135" to="gneE103"/>
    <trip id="12" depart="4.80" from="-gneE136" to="gneE90"/>
    <trip id="13" depart="5.20" from="gneE25" to="-gneE9"/>
    <trip id="14" depart="5.60" from="gneE92" to="gneE18"/>
    <trip id="15" depart="6.00" from="gneE133" to="gneE11"/>
    <trip id="16" depart="6.40" from="-gneE208" to="gneE11"/>
    <trip id="17" depart="6.80" from="-gneE207" to="gneE193"/>
    <trip id="18" depart="7.20" from="gneE150" to="-gneE51"/>
    <trip id="19" depart="7.60" from="-gneE55" to="gneE50"/>
    <trip id="20" depart="8.00" from="-gneE149" to="gneE180"/>
    <trip id="21" depart="8.40" from="-gneE107" to="-gneE66"/>
    <trip id="22" depart="8.80" from="gneE95" to="-gneE68"/>
    <trip id="23" depart="9.20" from="-gneE50" to="gneE20"/>
    <trip id="24" depart="9.60" from="gneE223" to="-gneE92"/>
    <trip id="25" depart="10.00" from="-gneE101" to="gneE106"/>
    <trip id="26" depart="10.40" from="gneE44" to="gneE117"/>
    <trip id="27" depart="10.80" from="-gneE208" to="gneE106"/>
    <trip id="28" depart="11.20" from="-gneE118" to="gneE28"/>
    <trip id="29" depart="11.60" from="gneE183" to="gneE29"/>
    <trip id="30" depart="12.00" from="-gneE178" to="-gneE169"/>
    <trip id="31" depart="12.40" from="-gneE168" to="-gneE95"/>
    <trip id="32" depart="12.80" from="gneE27" to="gneE127"/>
    <trip id="33" depart="13.20" from="-gneE184" to="gneE209"/>
    <trip id="34" depart="13.60" from="gneE130" to="-gneE205"/>
    <trip id="35" depart="14.00" from="-gneE36" to="-gneE114"/>
    <trip id="36" depart="14.40" from="gneE163" to="gneE151"/>
    <trip id="37" depart="14.80" from="-gneE198" to="-gneE201"/>
    <trip id="38" depart="15.20" from="-gneE48" to="-gneE197"/>
    <trip id="39" depart="15.60" from="gneE16" to="-gneE14"/>
    <trip id="40" depart="16.00" from="-gneE39" to="gneE181"/>
    <trip id="41" depart="16.40" from="-gneE100" to="gneE45"/>
    <trip id="42" depart="16.80" from="-gneE61" to="gneE122"/>
    <trip id="43" depart="17.20" from="gneE92" to="-gneE157"/>
    <trip id="44" depart="17.60" from="gneE33" to="-gneE55"/>
    <trip id="45" depart="18.00" from="-gneE201" to="-gneE183"/>
    <trip id="46" depart="18.40" from="-gneE210" to="-gneE25"/>
    <trip id="47" depart="18.80" from="-gneE198" to="-gneE10"/>
    <trip id="48" depart="19.20" from="gneE223" to="-gneE186"/>
    <trip id="49" depart="19.60" from="-gneE183" to="gneE189"/>
    <trip id="50" depart="20.00" from="-gneE51" to="-gneE212"/>
    <trip id="51" depart="20.40" from="-gneE95" to="-gneE35"/>
    <trip id="52" depart="20.80" from="gneE64" to="-gneE95"/>
    <trip id="53" depart="21.20" from="gneE109" to="gneE187"/>
    <trip id="54" depart="21.60" from="-gneE126" to="gneE38"/>
    <trip id="55" depart="22.00" from="gneE90" to="gneE11"/>
    <trip id="56" depart="22.40" from="gneE173" to="-gneE141"/>
    <trip id="57" depart="22.80" from="-gneE142" to="gneE199"/>
    <trip id="58" depart="23.20" from="-gneE34" to="gneE152"/>
    <trip id="59" depart="23.60" from="gneE158" to="gneE44"/>
    <trip id="60" depart="24.00" from="gneE42" to="gneE216"/>
    <trip id="61" depart="24.40" from="gneE79" to="-gneE103"/>
    <trip id="62" depart="24.80" from="-gneE111" to="-gneE92"/>
    <trip id="63" depart="25.20" from="-gneE178" to="gneE33"/>
    <trip id="64" depart="25.60" from="-gneE41" to="gneE10"/>
    <trip id="65" depart="26.00" from="-gneE170" to="gneE216"/>
    <trip id="66" depart="26.40" from="-gneE122" to="-gneE164"/>
    <trip id="67" depart="26.80" from="-gneE166" to="gneE216"/>
    <trip id="68" depart="27.20" from="gneE114" to="-gneE114"/>
    <trip id="69" depart="27.60" from="-gneE211" to="-gneE211"/>
    <trip id="70" depart="28.00" from="gneE170" to="-gneE171"/>
    <trip id="71" depart="28.40" from="-gneE24" to="gneE196"/>
    <trip id="72" depart="28.80" from="-gneE167" to="-gneE134"/>
    <trip id="73" depart="29.20" from="gneE67" to="gneE95"/>
    <trip id="74" depart="29.60" from="gneE5" to="-gneE25"/>
    <trip id="75" depart="30.00" from="-gneE190" to="-gneE146"/>
    <trip id="76" depart="30.40" from="-gneE111" to="-gneE9"/>
    <trip id="77" depart="30.80" from="-gneE146" to="-gneE98"/>
    <trip id="78" depart="31.20" from="gneE24" to="-gneE125"/>
    <trip id="79" depart="31.60" from="gneE144" to="-gneE35"/>
    <trip id="80" depart="32.00" from="gneE28" to="-gneE163"/>
    <trip id="81" depart="32.40" from="gneE107" to="gneE101"/>
    <trip id="82" depart="32.80" from="-gneE63" to="-gneE201"/>
    <trip id="83" depart="33.20" from="-gneE95" to="gneE4"/>
    <trip id="84" depart="33.60" from="-gneE14" to="gneE44"/>
    <trip id="85" depart="34.00" from="gneE92" to="gneE73"/>
    <trip id="86" depart="34.40" from="gneE52" to="gneE66"/>
    <trip id="87" depart="34.80" from="gneE172" to="gneE199"/>
    <trip id="88" depart="35.20" from="gneE39" to="gneE183"/>
    <trip id="89" depart="35.60" from="gneE192" to="gneE109"/>
    <trip id="90" depart="36.00" from="-gneE60" to="gneE150"/>
    <trip id="91" depart="36.40" from="-gneE136" to="gneE67"/>
    <trip id="92" depart="36.80" from="-gneE21" to="-gneE188"/>
    <trip id="93" depart="37.20" from="-gneE51" to="gneE28"/>
    <trip id="94" depart="37.60" from="-gneE86" to="gneE215"/>
    <trip id="95" depart="38.00" from="-gneE160" to="-gneE104"/>
    <trip id="96" depart="38.40" from="-gneE51" to="gneE64"/>
    <trip id="97" depart="38.80" from="-gneE127" to="-gneE180"/>
    <trip id="98" depart="39.20" from="-gneE214" to="-gneE117"/>
    <trip id="99" depart="39.60" from="-gneE191" to="gneE177"/>
    <trip id="100" depart="40.00" from="gneE73" to="-gneE29"/>
    <trip id="101" depart="40.40" from="gneE28" to="gneE150"/>
    <trip id="102" depart="40.80" from="gneE78" to="-gneE130"/>
    <trip id="103" depart="41.20" from="-gneE175" to="gneE43"/>
    <trip id="104" depart="41.60" from="gneE79" to="-gneE105"/>
    <trip id="105" depart="42.00" from="-gneE179" to="gneE194"/>
    <trip id="106" depart="42.40" from="gneE212" to="gneE38"/>
    <trip id="107" depart="42.80" from="-gneE210" to="gneE146"/>
    <trip id="108" depart="43.20" from="gneE163" to="-gneE132"/>
    <trip id="109" depart="43.60" from="gneE115" to="gneE152"/>
    <trip id="110" depart="44.00" from="gneE93" to="gneE213"/>
    <trip id="111" depart="44.40" from="-gneE217" to="gneE77"/>
    <trip id="112" depart="44.80" from="gneE171" to="-gneE200"/>
    <trip id="113" depart="45.20" from="-gneE176" to="gneE188"/>
    <trip id="114" depart="45.60" from="-gneE98" to="gneE209"/>
    <trip id="115" depart="46.00" from="gneE79" to="gneE168"/>
    <trip id="116" depart="46.40" from="gneE205" to="gneE212"/>
    <trip id="117" depart="46.80" from="gneE128" to="gneE149"/>
    <trip id="118" depart="47.20" from="-gneE4" to="gneE219"/>
    <trip id="119" depart="47.60" from="-gneE148" to="-gneE168"/>
    <trip id="120" depart="48.00" from="gneE50" to="gneE58"/>
    <trip id="121" depart="48.40" from="-gneE196" to="gneE145"/>
    <trip id="122" depart="48.80" from="-gneE197" to="-gneE216"/>
    <trip id="123" depart="49.20" from="-gneE104" to="-gneE120"/>
    <trip id="124" depart="49.60" from="-gneE50" to="-gneE46"/>
    <trip id="125" depart="50.00" from="-gneE214" to="-gneE28"/>
    <trip id="126" depart="50.40" from="-gneE101" to="-gneE135"/>
    <trip id="127" depart="50.80" from="gneE29" to="-gneE210"/>
    <trip id="128" depart="51.20" from="gneE36" to="gneE189"/>
    <trip id="129" depart="51.60" from="-gneE131" to="gneE206"/>
    <trip id="130" depart="52.00" from="gneE119" to="-gneE75"/>
    <trip id="131" depart="52.40" from="gneE211" to="-gneE73"/>
    <trip id="132" depart="52.80" from="-gneE7" to="-gneE200"/>
    <trip id="133" depart="53.20" from="-gneE204" to="-gneE41"/>
    <trip id="134" depart="53.60" from="gneE143" to="gneE190"/>
    <trip id="135" depart="54.00" from="-gneE36" to="-gneE181"/>
    <trip id="136" depart="54.40" from="-gneE171" to="gneE11"/>
    <trip id="137" depart="54.80" from="-gneE223" to="-gneE175"/>
    <trip id="138" depart="55.20" from="gneE105" to="-gneE157"/>
    <trip id="139" depart="55.60" from="-gneE30" to="-gneE108"/>
    <trip id="140" depart="56.00" from="-gneE208" to="-gneE179"/>
    <trip id="141" depart="56.40" from="gneE43" to="gneE7"/>
    <trip id="142" depart="56.80" from="gneE201" to="gneE39"/>
    <trip id="143" depart="57.20" from="gneE39" to="gneE223"/>
    <trip id="144" depart="57.60" from="-gneE26" to="-gneE107"/>
    <trip id="145" depart="58.00" from="-gneE55" to="-gneE60"/>
    <trip id="146" depart="58.40" from="gneE170" to="-gneE207"/>
    <trip id="147" depart="58.80" from="gneE222" to="gneE106"/>
    <trip id="148" depart="59.20" from="gneE101" to="gneE204"/>
    <trip id="149" depart="59.60" from="-gneE122" to="-gneE14"/>
    <trip id="150" depart="60.00" from="gneE9" to="-gneE25"/>
    <trip id="151" depart="60.40" from="gneE52" to="-gneE63"/>
    <trip id="152" depart="60.80" from="gneE115" to="-gneE213"/>
    <trip id="153" depart="61.20" from="-gneE28" to="-gneE165"/>
    <trip id="154" depart="61.60" from="-gneE7" to="gneE203"/>
    <trip id="155" depart="62.00" from="gneE196" to="-gneE107"/>
    <trip id="156" depart="62.40" from="-gneE9" to="gneE20"/>
    <trip id="157" depart="62.80" from="gneE167" to="gneE77"/>
    <trip id="158" depart="63.20" from="gneE197" to="-gneE10"/>
    <trip id="159" depart="63.60" from="-gneE204" to="gneE28"/>
    <trip id="160" depart="64.00" from="gneE219" to="gneE205"/>
    <trip id="161" depart="64.40" from="gneE92" to="-gneE131"/>
    <trip id="162" depart="64.80" from="gneE104" to="-gneE44"/>
    <trip id="163" depart="65.20" from="gneE153" to="-gneE39"/>
    <trip id="164" depart="65.60" from="gneE196" to="gneE24"/>
    <trip id="165" depart="66.00" from="gneE92" to="-gneE144"/>
    <trip id="166" depart="66.40" from="gneE159" to="-gneE170"/>
    <trip id="167" depart="66.80" from="-gneE140" to="-gneE120"/>
    <trip id="168" depart="67.20" from="-gneE103" to="-gneE214"/>
    <trip id="169" depart="67.60" from="-gneE34" to="-gneE178"/>
    <trip id="170" depart="68.00" from="gneE75" to="gneE38"/>
    <trip id="171" depart="68.40" from="gneE200" to="gneE199"/>
    <trip id="172" depart="68.80" from="-gneE197" to="-gneE131"/>
    <trip id="173" depart="69.20" from="-gneE132" to="-gneE143"/>
    <trip id="174" depart="69.60" from="-gneE159" to="gneE86"/>
    <trip id="175" depart="70.00" from="-gneE29" to="-gneE147"/>
    <trip id="176" depart="70.40" from="-gneE93" to="gneE27"/>
    <trip id="177" depart="70.80" from="gneE159" to="-gneE216"/>
    <trip id="178" depart="71.20" from="gneE214" to="gneE63"/>
    <trip id="179" depart="71.60" from="-gneE67" to="-gneE110"/>
    <trip id="180" depart="72.00" from="gneE115" to="gneE115"/>
    <trip id="181" depart="72.40" from="-gneE27" to="-gneE150"/>
    <trip id="182" depart="72.80" from="-gneE192" to="-gneE176"/>
    <trip id="183" depart="73.20" from="-gneE103" to="-gneE205"/>
    <trip id="184" depart="73.60" from="gneE77" to="gneE24"/>
    <trip id="185" depart="74.00" from="-gneE39" to="-gneE115"/>
    <trip id="186" depart="74.40" from="gneE212" to="gneE195"/>
    <trip id="187" depart="74.80" from="-gneE114" to="gneE189"/>
    <trip id="188" depart="75.20" from="-gneE29" to="-gneE149"/>
    <trip id="189" depart="75.60" from="gneE140" to="gneE64"/>
    <trip id="190" depart="76.00" from="-gneE186" to="-gneE103"/>
    <trip id="191" depart="76.40" from="-gneE43" to="-gneE111"/>
    <trip id="192" depart="76.80" from="gneE140" to="-gneE79"/>
    <trip id="193" depart="77.20" from="gneE73" to="-gneE121"/>
    <trip id="194" depart="77.60" from="gneE120" to="gneE93"/>
    <trip id="195" depart="78.00" from="-gneE99" to="-gneE168"/>
    <trip id="196" depart="78.40" from="gneE180" to="gneE197"/>
    <trip id="197" depart="78.80" from="gneE184" to="-gneE194"/>
    <trip id="198" depart="79.20" from="-gneE189" to="gneE151"/>
    <trip id="199" depart="79.60" from="-gneE33" to="-gneE51"/>
    <trip id="200" depart="80.00" from="-gneE45" to="gneE148"/>
    <trip id="201" depart="80.40" from="-gneE140" to="gneE136"/>
    <trip id="202" depart="80.80" from="-gneE144" to="gneE41"/>
    <trip id="203" depart="81.20" from="gneE45" to="-gneE206"/>
    <trip id="204" depart="81.60" from="-gneE178" to="-gneE78"/>
    <trip id="205" depart="82.00" from="-gneE30" to="gneE126"/>
    <trip id="206" depart="82.40" from="-gneE75" to="-gneE4"/>
    <trip id="207" depart="82.80" from="-gneE68" to="-gneE64"/>
    <trip id="208" depart="83.20" from="gneE209" to="-gneE189"/>
    <trip id="209" depart="83.60" from="gneE43" to="-gneE188"/>
    <trip id="210" depart="84.00" from="-gneE61" to="gneE208"/>
    <trip id="211" depart="84.40" from="-gneE191" to="gneE195"/>
    <trip id="212" depart="84.80" from="gneE163" to="-gneE107"/>
    <trip id="213" depart="85.20" from="-gneE185" to="gneE175"/>
    <trip id="214" depart="85.60" from="-gneE43" to="-gneE182"/>
    <trip id="215" depart="86.00" from="-gneE219" to="-gneE206"/>
    <trip id="216" depart="86.40" from="gneE15" to="-gneE49"/>
    <trip id="217" depart="86.80" from="gneE194" to="-gneE215"/>
    <trip id="218" depart="87.20" from="gneE180" to="-gneE38"/>
    <trip id="219" depart="87.60" from="-gneE146" to="gneE58"/>
    <trip id="220" depart="88.00" from="-gneE62" to="-gneE176"/>
    <trip id="221" depart="88.40" from="gneE107" to="-gneE134"/>
    <trip id="222" depart="88.80" from="-gneE132" to="gneE93"/>
    <trip id="223" depart="89.20" from="-gneE48" to="gneE128"/>
    <trip id="224" depart="89.60" from="gneE193" to="-gneE151"/>
    <trip id="225" depart="90.00" from="-gneE208" to="-gneE186"/>
    <trip id="226" depart="90.40" from="-gneE77" to="gneE222"/>
    <trip id="227" depart="90.80" from="-gneE176" to="gneE169"/>
    <trip id="228" depart="91.20" from="gneE222" to="-gneE158"/>
    <trip id="229" depart="91.60" from="gneE193" to="-gneE126"/>
    <trip id="230" depart="92.00" from="-gneE38" to="-gneE125"/>
    <trip id="231" depart="92.40" from="gneE92" to="gneE100"/>
    <trip id="232" depart="92.80" from="-gneE210" to="-gneE188"/>
    <trip id="233" depart="93.20" from="-gneE122" to="-gneE124"/>
    <trip id="234" depart="93.60" from="gneE128" to="-gneE215"/>
    <trip id="235" depart="94.00" from="-gneE134" to="gneE197"/>
    <trip id="236" depart="94.40" from="gneE58" to="-gneE73"/>
    <trip id="237" depart="94.80" from="-gneE120" to="gneE191"/>
    <trip id="238" depart="95.20" from="gneE159" to="gneE185"/>
    <trip id="239" depart="95.60" from="-gneE159" to="gneE11"/>
    <trip id="240" depart="96.00" from="gneE44" to="gneE222"/>
    <trip id="241" depart="96.40" from="-gneE7" to="gneE28"/>
    <trip id="242" depart="96.80" from="gneE209" to="-gneE54"/>
    <trip id="243" depart="97.20" from="gneE54" to="-gneE114"/>
    <trip id="244" depart="97.60" from="-gneE21" to="-gneE146"/>
    <trip id="245" depart="98.00" from="gneE199" to="gneE176"/>
    <trip id="246" depart="98.40" from="gneE196" to="-gneE52"/>
    <trip id="247" depart="98.80" from="gneE193" to="-gneE180"/>
    <trip id="248" depart="99.20" from="gneE104" to="-gneE67"/>
    <trip id="249" depart="99.60" from="-gneE126" to="-gneE100"/>
    <trip id="250" depart="100.00" from="-gneE52" to="gneE164"/>
    <trip id="251" depart="100.40" from="-gneE124" to="gneE121"/>
    <trip id="252" depart="100.80" from="-gneE193" to="-gneE159"/>
    <trip id="253" depart="101.20" from="-gneE213" to="gneE183"/>
    <trip id="254" depart="101.60" from="-gneE24" to="gneE142"/>
    <trip id="255" depart="102.00" from="gneE98" to="gneE148"/>
    <trip id="256" depart="102.40" from="gneE91" to="-gneE46"/>
    <trip id="257" depart="102.80" from="-gneE205" to="-gneE208"/>
    <trip id="258" depart="103.20" from="gneE175" to="gneE25"/>
    <trip id="259" depart="103.60" from="-gneE135" to="gneE107"/>
    <trip id="260" depart="104.00" from="-gneE174" to="gneE152"/>
    <trip id="261" depart="104.40" from="gneE50" to="gneE159"/>
    <trip id="262" depart="104.80" from="gneE46" to="-gneE172"/>
    <trip id="263" depart="105.20" from="-gneE151" to="gneE166"/>
    <trip id="264" depart="105.60" from="-gneE140" to="gneE164"/>
    <trip id="265" depart="106.00" from="gneE133" to="gneE114"/>
    <trip id="266" depart="106.40" from="gneE142" to="-gneE55"/>
    <trip id="267" depart="106.80" from="-gneE208" to="gneE79"/>
    <trip id="268" depart="107.20" from="gneE203" to="gneE184"/>
    <trip id="269" depart="107.60" from="-gneE107" to="gneE138"/>
    <trip id="270" depart="108.00" from="gneE50" to="gneE95"/>
    <trip id="271" depart="108.40" from="-gneE48" to="-gneE75"/>
    <trip id="272" depart="108.80" from="-gneE39" to="-gneE189"/>
    <trip id="273" depart="109.20" from="gneE42" to="-gneE222"/>
    <trip id="274" depart="109.60" from="-gneE43" to="-gneE4"/>
    <trip id="275" depart="110.00" from="gneE207" to="gneE179"/>
    <trip id="276" depart="110.40" from="gneE128" to="-gneE164"/>
    <trip id="277" depart="110.80" from="-gneE157" to="gneE201"/>
    <trip id="278" depart="111.20" from="-gneE5" to="-gneE98"/>
    <trip id="279" depart="111.60" from="gneE134" to="gneE58"/>
    <trip id="280" depart="112.00" from="-gneE46" to="gneE222"/>
    <trip id="281" depart="112.40" from="-gneE56" to="gneE163"/>
    <trip id="282" depart="112.80" from="gneE31" to="-gneE134"/>
    <trip id="283" depart="113.20" from="gneE130" to="-gneE21"/>
    <trip id="284" depart="113.60" from="-gneE173" to="-gneE79"/>
    <trip id="285" depart="114.00" from="gneE200" to="-gneE179"/>
    <trip id="286" depart="114.40" from="gneE21" to="gneE211"/>
    <trip id="287" depart="114.80" from="-gneE93" to="-gneE62"/>
    <trip id="288" depart="115.20" from="gneE25" to="gneE31"/>
    <trip id="289" depart="115.60" from="gneE51" to="gneE143"/>
    <trip id="290" depart="116.00" from="gneE72" to="-gneE24"/>
    <trip id="291" depart="116.40" from="-gneE185" to="-gneE179"/>
    <trip id="292" depart="116.80" from="-gneE159" to="gneE31"/>
    <trip id="293" depart="117.20" from="-gneE179" to="gneE219"/>
    <trip id="294" depart="117.60" from="gneE119" to="gneE44"/>
    <trip id="295" depart="118.00" from="gneE165" to="-gneE125"/>
    <trip id="296" depart="118.40" from="-gneE196" to="-gneE136"/>
    <trip id="297" depart="118.80" from="-gneE77" to="-gneE183"/>
    <trip id="298" depart="119.20" from="gneE103" to="-gneE191"/>
    <trip id="299" depart="119.60" from="-gneE201" to="gneE49"/>
    <trip id="300" depart="120.00" from="gneE43" to="gneE34"/>
    <trip id="301" depart="120.40" from="gneE73" to="gneE121"/>
    <trip id="302" depart="120.80" from="gneE220" to="-gneE209"/>
    <trip id="303" depart="121.20" from="-gneE223" to="-gneE192"/>
    <trip id="304" depart="121.60" from="-gneE181" to="-gneE125"/>
    <trip id="305" depart="122.00" from="gneE65" to="-gneE115"/>
    <trip id="306" depart="122.40" from="gneE176" to="gneE163"/>
    <trip id="307" depart="122.80" from="gneE56" to="gneE150"/>
    <trip id="308" depart="123.20" from="gneE199" to="gneE223"/>
    <trip id="309" depart="123.60" from="-gneE108" to="-gneE151"/>
    <trip id="310" depart="124.00" from="gneE68" to="gneE35"/>
    <trip id="311" depart="124.40" from="-gneE105" to="gneE92"/>
    <trip id="312" depart="124.80" from="-gneE9" to="-gneE223"/>
    <trip id="313" depart="125.20" from="-gneE182" to="gneE192"/>
    <trip id="314" depart="125.60" from="-gneE201" to="gneE52"/>
    <trip id="315" depart="126.00" from="-gneE118" to="-gneE58"/>
    <trip id="316" depart="126.40" from="gneE101" to="-gneE4"/>
    <trip id="317" depart="126.80" from="gneE216" to="gneE200"/>
    <trip id="318" depart="127.20" from="-gneE134" to="-gneE130"/>
    <trip id="319" depart="127.60" from="-gneE30" to="-gneE54"/>
    <trip id="320" depart="128.00" from="gneE188" to="gneE195"/>
    <trip id="321" depart="128.40" from="gneE38" to="gneE46"/>
    <trip id="322" depart="128.80" from="gneE174" to="gneE124"/>
    <trip id="323" depart="129.20" from="-gneE16" to="-gneE145"/>
    <trip id="324" depart="129.60" from="gneE180" to="gneE184"/>
    <trip id="325" depart="130.00" from="gneE52" to="gneE86"/>
    <trip id="326" depart="130.40" from="gneE61" to="-gneE175"/>
    <trip id="327" depart="130.80" from="-gneE201" to="-gneE119"/>
    <trip id="328" depart="131.20" from="gneE45" to="-gneE103"/>
    <trip id="329" depart="131.60" from="gneE186" to="-gneE24"/>
    <trip id="330" depart="132.00" from="gneE209" to="-gneE24"/>
    <trip id="331" depart="132.40" from="-gneE35" to="gneE189"/>
    <trip id="332" depart="132.80" from="-gneE5" to="-gneE31"/>
    <trip id="333" depart="133.20" from="-gneE86" to="-gneE176"/>
    <trip id="334" depart="133.60" from="-gneE207" to="-gneE27"/>
    <trip id="335" depart="134.00" from="gneE95" to="-gneE186"/>
    <trip id="336" depart="134.40" from="gneE121" to="-gneE95"/>
    <trip id="337" depart="134.80" from="gneE200" to="gneE42"/>
    <trip id="338" depart="135.20" from="-gneE105" to="gneE172"/>
    <trip id="339" depart="135.60" from="gneE169" to="gneE101"/>
    <trip id="340" depart="136.00" from="-gneE157" to="-gneE54"/>
    <trip id="341" depart="136.40" from="-gneE136" to="-gneE129"/>
    <trip id="342" depart="136.80" from="-gneE123" to="-gneE191"/>
    <trip id="343" depart="137.20" from="-gneE62" to="-gneE56"/>
    <trip id="344" depart="137.60" from="gneE109" to="gneE223"/>
    <trip id="345" depart="138.00" from="-gneE142" to="gneE186"/>
    <trip id="346" depart="138.40" from="-gneE138" to="-gneE123"/>
    <trip id="347" depart="138.80" from="gneE98" to="gneE95"/>
    <trip id="348" depart="139.20" from="-gneE152" to="-gneE158"/>
    <trip id="349" depart="139.60" from="gneE192" to="-gneE200"/>
    <trip id="350" depart="140.00" from="-gneE134" to="-gneE175"/>
    <trip id="351" depart="140.40" from="-gneE223" to="-gneE61"/>
    <trip id="352" depart="140.80" from="gneE104" to="-gneE208"/>
    <trip id="353" depart="141.20" from="gneE62" to="-gneE179"/>
    <trip id="354" depart="141.60" from="gneE114" to="gneE33"/>
    <trip id="355" depart="142.00" from="gneE98" to="-gneE194"/>
    <trip id="356" depart="142.40" from="-gneE22" to="gneE133"/>
    <trip id="357" depart="142.80" from="-gneE42" to="gneE195"/>
    <trip id="358" depart="143.20" from="-gneE201" to="gneE201"/>
    <trip id="359" depart="143.60" from="gneE210" to="-gneE98"/>
    <trip id="360" depart="144.00" from="gneE157" to="gneE45"/>
    <trip id="361" depart="144.40" from="-gneE220" to="gneE194"/>
    <trip id="362" depart="144.80" from="gneE164" to="gneE122"/>
    <trip id="363" depart="145.20" from="-gneE63" to="gneE5"/>
    <trip id="364" depart="145.60" from="gneE21" to="gneE115"/>
    <trip id="365" depart="146.00" from="-gneE208" to="gneE127"/>
    <trip id="366" depart="146.40" from="-gneE79" to="gneE36"/>
    <trip id="367" depart="146.80" from="gneE91" to="gneE109"/>
    <trip id="368" depart="147.20" from="-gneE145" to="-gneE195"/>
    <trip id="369" depart="147.60" from="gneE134" to="-gneE143"/>
    <trip id="370" depart="148.00" from="-gneE152" to="-gneE26"/>
    <trip id="371" depart="148.40" from="-gneE109" to="-gneE140"/>
    <trip id="372" depart="148.80" from="gneE49" to="gneE4"/>
    <trip id="373" depart="149.20" from="-gneE119" to="-gneE189"/>
    <trip id="374" depart="149.60" from="-gneE203" to="gneE204"/>
    <trip id="375" depart="150.00" from="gneE21" to="-gneE90"/>
    <trip id="376" depart="150.40" from="gneE142" to="gneE125"/>
    <trip id="377" depart="150.80" from="gneE110" to="gneE33"/>
    <trip id="378" depart="151.20" from="gneE53" to="-gneE131"/>
    <trip id="379" depart="151.60" from="gneE9" to="-gneE127"/>
    <trip id="380" depart="152.00" from="-gneE217" to="gneE98"/>
    <trip id="381" depart="152.40" from="-gneE182" to="gneE127"/>
    <trip id="382" depart="152.80" from="-gneE198" to="-gneE92"/>
    <trip id="383" depart="153.20" from="-gneE56" to="gneE179"/>
    <trip id="384" depart="153.60" from="-gneE122" to="gneE164"/>
    <trip id="385" depart="154.00" from="-gneE46" to="gneE208"/>
    <trip id="386" depart="154.40" from="gneE184" to="gneE178"/>
    <trip id="387" depart="154.80" from="-gneE5" to="gneE14"/>
    <trip id="388" depart="155.20" from="-gneE9" to="gneE49"/>
    <trip id="389" depart="155.60" from="-gneE14" to="gneE140"/>
    <trip id="390" depart="156.00" from="-gneE58" to="-gneE46"/>
    <trip id="391" depart="156.40" from="-gneE165" to="-gneE193"/>
    <trip id="392" depart="156.80" from="-gneE212" to="gneE149"/>
    <trip id="393" depart="157.20" from="gneE28" to="gneE104"/>
    <trip id="394" depart="157.60" from="-gneE221" to="-gneE187"/>
    <trip id="395" depart="158.00" from="gneE144" to="-gneE185"/>
    <trip id="396" depart="158.40" from="gneE148" to="gneE93"/>
    <trip id="397" depart="158.80" from="gneE114" to="-gneE75"/>
    <trip id="398" depart="159.20" from="gneE152" to="-gneE48"/>
    <trip id="399" depart="159.60" from="-gneE163" to="-gneE98"/>
    <trip id="400" depart="160.00" from="-gneE125" to="gneE11"/>
    <trip id="401" depart="160.40" from="gneE21" to="-gneE127"/>
    <trip id="402" depart="160.80" from="gneE201" to="-gneE63"/>
    <trip id="403" depart="161.20" from="-gneE41" to="gneE33"/>
    <trip id="404" depart="161.60" from="-gneE200" to="gneE141"/>
    <trip id="405" depart="162.00" from="-gneE110" to="-gneE148"/>
    <trip id="406" depart="162.40" from="-gneE120" to="gneE182"/>
    <trip id="407" depart="162.80" from="-gneE93" to="-gneE66"/>
    <trip id="408" depart="163.20" from="gneE65" to="-gneE205"/>
    <trip id="409" depart="163.60" from="-gneE127" to="-gneE134"/>
    <trip id="410" depart="164.00" from="gneE36" to="-gneE140"/>
    <trip id="411" depart="164.40" from="-gneE65" to="gneE222"/>
    <trip id="412" depart="164.80" from="gneE43" to="-gneE144"/>
    <trip id="413" depart="165.20" from="gneE212" to="gneE28"/>
    <trip id="414" depart="165.60" from="-gneE144" to="-gneE115"/>
    <trip id="415" depart="166.00" from="-gneE204" to="gneE114"/>
    <trip id="416" depart="166.40" from="-gneE4" to="-gneE24"/>
    <trip id="417" depart="166.80" from="gneE65" to="-gneE176"/>
    <trip id="418" depart="167.20" from="gneE93" to="-gneE200"/>
    <trip id="419" depart="167.60" from="gneE193" to="-gneE67"/>
    <trip id="420" depart="168.00" from="-gneE132" to="-gneE45"/>
    <trip id="421" depart="168.40" from="gneE31" to="-gneE95"/>
    <trip id="422" depart="168.80" from="-gneE90" to="-gneE168"/>
    <trip id="423" depart="169.20" from="gneE75" to="-gneE73"/>
    <trip id="424" depart="169.60" from="gneE98" to="gneE115"/>
    <trip id="425" depart="170.00" from="gneE110" to="-gneE209"/>
    <trip id="426" depart="170.40" from="-gneE203" to="-gneE79"/>
    <trip id="427" depart="170.80" from="gneE152" to="gneE11"/>
    <trip id="428" depart="171.20" from="-gneE90" to="gneE175"/>
    <trip id="429" depart="171.60" from="gneE42" to="-gneE50"/>
    <trip id="430" depart="172.00" from="-gneE44" to="-gneE212"/>
    <trip id="431" depart="172.40" from="gneE48" to="-gneE195"/>
    <trip id="432" depart="172.80" from="-gneE78" to="gneE42"/>
    <trip id="433" depart="173.20" from="-gneE170" to="-gneE21"/>
    <trip id="434" depart="173.60" from="-gneE142" to="gneE122"/>
    <trip id="435" depart="174.00" from="-gneE111" to="gneE128"/>
    <trip id="436" depart="174.40" from="gneE58" to="gneE146"/>
    <trip id="437" depart="174.80" from="-gneE190" to="-gneE132"/>
    <trip id="438" depart="175.20" from="-gneE14" to="-gneE73"/>
    <trip id="439" depart="175.60" from="gneE132" to="gneE141"/>
    <trip id="440" depart="176.00" from="-gneE28" to="-gneE185"/>
    <trip id="441" depart="176.40" from="-gneE4" to="-gneE215"/>
    <trip id="442" depart="176.80" from="gneE145" to="gneE160"/>
    <trip id="443" depart="177.20" from="gneE73" to="gneE199"/>
    <trip id="444" depart="177.60" from="gneE192" to="gneE178"/>
    <trip id="445" depart="178.00" from="gneE55" to="gneE214"/>
    <trip id="446" depart="178.40" from="-gneE114" to="-gneE136"/>
    <trip id="447" depart="178.80" from="-gneE115" to="gneE133"/>
    <trip id="448" depart="179.20" from="-gneE134" to="-gneE138"/>
    <trip id="449" depart="179.60" from="-gneE29" to="-gneE148"/>
    <trip id="450" depart="180.00" from="-gneE208" to="-gneE95"/>
    <trip id="451" depart="180.40" from="gneE5" to="gneE48"/>
    <trip id="452" depart="180.80" from="-gneE64" to="gneE51"/>