<additional xmlns:xsi="http://www.w3.org/2001/XMLSchema-instance" xsi:noNamespaceSchemaLocation="http://sumo.dlr.de/xsd/additional_file.xsd">
    <laneAreaDetector file="e2output.xml" freq="60" friendlyPos="x" id="e2det_-gneE10_0" lane="-gneE10_0" length="250" pos="20.1"/>
    <laneAreaDetector file="e2output.xml" freq="60" friendlyPos="x" id="e2det_-gneE10_1" lane="-gneE10_1" length="250" pos="20.1"/>
    <laneAreaDetector file="e2output.xml" freq="60" friendlyPos="x" id="e2det_-gneE10_2" lane="-gneE10_2" length="250" pos="20.1"/>
    <laneAreaDetector file="e2output.xml" freq="60" friendlyPos="x" id="e2det_gneE86_0" lane="gneE86_0" length="201.45" pos="0"/>
    <laneAreaDetector file="e2output.xml" freq="60" friendlyPos="x" id="e2det_gneE86_1" lane="gneE86_1" length="201.45" pos="0"/>
    <laneAreaDetector file="e2output.xml" freq="60" friendlyPos="x" id="e2det_gneE86_2" lane="gneE86_2" length="201.45" pos="0"/>
    <laneAreaDetector file="e2output.xml" freq="60" friendlyPos="x" id="e2det_gneE9_0" lane="gneE9_0" length="250" pos="13.56"/>
    <laneAreaDetector file="e2output.xml" freq="60" friendlyPos="x" id="e2det_gneE9_1" lane="gneE9_1" length="250" pos="13.56"/>
    <laneAreaDetector file="e2output.xml" freq="60" friendlyPos="x" id="e2det_gneE9_2" lane="gneE9_2" length="250" pos="13.56"/>
    <laneAreaDetector file="e2output.xml" freq="60" friendlyPos="x" id="e2det_-gneE100_0" lane="-gneE100_0" length="250" pos="37.68"/>
    <laneAreaDetector file="e2output.xml" freq="60" friendlyPos="x" id="e2det_-gneE93_0" lane="-gneE93_0" length="173.72" pos="0"/>
    <laneAreaDetector file="e2output.xml" freq="60" friendlyPos="x" id="e2det_-gneE93_1" lane="-gneE93_1" length="173.72" pos="0"/>
    <laneAreaDetector file="e2output.xml" freq="60" friendlyPos="x" id="e2det_-gneE93_2" lane="-gneE93_2" length="173.72" pos="0"/>
    <laneAreaDetector file="e2output.xml" freq="60" friendlyPos="x" id="e2det_gneE135_0" lane="gneE135_0" length="199.7" pos="0"/>
    <laneAreaDetector file="e2output.xml" freq="60" friendlyPos="x" id="e2det_gneE135_1" lane="gneE135_1" length="199.7" pos="0"/>
    <laneAreaDetector file="e2output.xml" freq="60" friendlyPos="x" id="e2det_gneE135_2" lane="gneE135_2" length="199.7" pos="0"/>
    <laneAreaDetector file="e2output.xml" freq="60" friendlyPos="x" id="e2det_gneE92_0" lane="gneE92_0" length="250" pos="31.18"/>
    <laneAreaDetector file="e2output.xml" freq="60" friendlyPos="x" id="e2det_-gneE101_0" lane="-gneE101_0" length="173.35" pos="0"/>
    <laneAreaDetector file="e2output.xml" freq="60" friendlyPos="x" id="e2det_-gneE101_1" lane="-gneE101_1" length="173.35" pos="0"/>
    <laneAreaDetector file="e2output.xml" freq="60" friendlyPos="x" id="e2det_-gneE101_2" lane="-gneE101_2" length="173.35" pos="0"/>
    <laneAreaDetector file="e2output.xml" freq="60" friendlyPos="x" id="e2det_-gneE107_0" lane="-gneE107_0" length="241.48" pos="0"/>
    <laneAreaDetector file="e2output.xml" freq="60" friendlyPos="x" id="e2det_gneE100_0" lane="gneE100_0" length="250" pos="37.68"/>
    <laneAreaDetector file="e2output.xml" freq="60" friendlyPos="x" id="e2det_gneE222_0" lane="gneE222_0" length="193.4" pos="0"/>
    <laneAreaDetector file="e2output.xml" freq="60" friendlyPos="x" id="e2det_gneE222_1" lane="gneE222_1" length="193.4" pos="0"/>
    <laneAreaDetector file="e2output.xml" freq="60" friendlyPos="x" id="e2det_gneE222_2" lane="gneE222_2" length="193.4" pos="0"/>
    <laneAreaDetector file="e2output.xml" freq="60" friendlyPos="x" id="e2det_-gneE103_0" lane="-gneE103_0" length="250" pos="7.26"/>
    <laneAreaDetector file="e2output.xml" freq="60" friendlyPos="x" id="e2det_-gneE96_0" lane="-gneE96_0" length="202.88" pos="0"/>
    <laneAreaDetector file="e2output.xml" freq="60" friendlyPos="x" id="e2det_-gneE96_1" lane="-gneE96_1" length="202.88" pos="0"/>
    <laneAreaDetector file="e2output.xml" freq="60" friendlyPos="x" id="e2det_-gneE96_2" lane="-gneE96_2" length="202.88" pos="0"/>
    <laneAreaDetector file="e2output.xml" freq="60" friendlyPos="x" id="e2det_gneE95_0" lane="gneE95_0" length="250" pos="25.45"/>
    <laneAreaDetector file="e2output.xml" freq="60" friendlyPos="x" id="e2det_gneE99_0" lane="gneE99_0" length="192.8" pos="0"/>
    <laneAreaDetector file="e2output.xml" freq="60" friendlyPos="x" id="e2det_gneE99_1" lane="gneE99_1" length="192.8" pos="0"/>
    <laneAreaDetector file="e2output.xml" freq="60" friendlyPos="x" id="e2det_gneE99_2" lane="gneE99_2" length="192.8" pos="0"/>
    <laneAreaDetector file="e2output.xml" freq="60" friendlyPos="x" id="e2det_-gneE104_0" lane="-gneE104_0" length="198.24" pos="0"/>
    <laneAreaDetector file="e2output.xml" freq="60" friendlyPos="x" id="e2det_-gneE104_1" lane="-gneE104_1" length="198.24" pos="0"/>
    <laneAreaDetector file="e2output.xml" freq="60" friendlyPos="x" id="e2det_-gneE104_2" lane="-gneE104_2" length="198.24" pos="0"/>
    <laneAreaDetector file="e2output.xml" freq="60" friendlyPos="x" id="e2det_-gneE109_0" lane="-gneE109_0" length="228.56" pos="0"/>
    <laneAreaDetector file="e2output.xml" freq="60" friendlyPos="x" id="e2det_gneE103_0" lane="gneE103_0" length="250" pos="7.26"/>
    <laneAreaDetector file="e2output.xml" freq="60" friendlyPos="x" id="e2det_gneE106_0" lane="gneE106_0" length="197.55" pos="0"/>
    <laneAreaDetector file="e2output.xml" freq="60" friendlyPos="x" id="e2det_gneE106_1" lane="gneE106_1" length="197.55" pos="0"/>
    <laneAreaDetector file="e2output.xml" freq="60" friendlyPos="x" id="e2det_gneE106_2" lane="gneE106_2" length="197.55" pos="0"/>
    <laneAreaDetector file="e2output.xml" freq="60" friendlyPos="x" id="e2det_-gneE105_0" lane="-gneE105_0" length="246.07" pos="0"/>
    <laneAreaDetector file="e2output.xml" freq="60" friendlyPos="x" id="e2det_-gneE99_0" lane="-gneE99_0" length="192.8" pos="0"/>
    <laneAreaDetector file="e2output.xml" freq="60" friendlyPos="x" id="e2det_-gneE99_1" lane="-gneE99_1" length="192.8" pos="0"/>
    <laneAreaDetector file="e2output.xml" freq="60" friendlyPos="x" id="e2det_-gneE99_2" lane="-gneE99_2" length="192.8" pos="0"/>
    <laneAreaDetector file="e2output.xml" freq="60" friendlyPos="x" id="e2det_gneE101_0" lane="gneE101_0" length="173.35" pos="0"/>
    <laneAreaDetector file="e2output.xml" freq="60" friendlyPos="x" id="e2det_gneE101_1" lane="gneE101_1" length="173.35" pos="0"/>
    <laneAreaDetector file="e2output.xml" freq="60" friendlyPos="x" id="e2det_gneE101_2" lane="gneE101_2" length="173.35" pos="0"/>
    <laneAreaDetector file="e2output.xml" freq="60" friendlyPos="x" id="e2det_gneE98_0" lane="gneE98_0" length="250" pos="33.66"/>
    <laneAreaDetector file="e2output.xml" freq="60" friendlyPos="x" id="e2det_-gneE106_0" lane="-gneE106_0" length="197.55" pos="0"/>
    <laneAreaDetector file="e2output.xml" freq="60" friendlyPos="x" id="e2det_-gneE106_1" lane="-gneE106_1" length="197.55" pos="0"/>
    <laneAreaDetector file="e2output.xml" freq="60" friendlyPos="x" id="e2det_-gneE106_2" lane="-gneE106_2" length="197.55" pos="0"/>
    <laneAreaDetector file="e2output.xml" freq="60" friendlyPos="x" id="e2det_-gneE111_0" lane="-gneE111_0" length="225.41" pos="0"/>
    <laneAreaDetector file="e2output.xml" freq="60" friendlyPos="x" id="e2det_gneE105_0" lane="gneE105_0" length="246.07" pos="0"/>
    <laneAreaDetector file="e2output.xml" freq="60" friendlyPos="x" id="e2det_gneE108_0" lane="gneE108_0" length="167.25" pos="0"/>
    <laneAreaDetector file="e2output.xml" freq="60" friendlyPos="x" id="e2det_gneE108_1" lane="gneE108_1" length="167.25" pos="0"/>
    <laneAreaDetector file="e2output.xml" freq="60" friendlyPos="x" id="e2det_gneE108_2" lane="gneE108_2" length="167.25" pos="0"/>
    <laneAreaDetector file="e2output.xml" freq="60" friendlyPos="x" id="e2det_-gneE108_0" lane="-gneE108_0" length="167.25" pos="0"/>
    <laneAreaDetector file="e2output.xml" freq="60" friendlyPos="x" id="e2det_-gneE108_1" lane="-gneE108_1" length="167.25" pos="0"/>
    <laneAreaDetector file="e2output.xml" freq="60" friendlyPos="x" id="e2det_-gneE108_2" lane="-gneE108_2" length="167.25" pos="0"/>
    <laneAreaDetector file="e2output.xml" freq="60" friendlyPos="x" id="e2det_-gneE115_0" lane="-gneE115_0" length="217.26" pos="0"/>
    <laneAreaDetector file="e2output.xml" freq="60" friendlyPos="x" id="e2det_gneE107_0" lane="gneE107_0" length="241.48" pos="0"/>
    <laneAreaDetector file="e2output.xml" freq="60" friendlyPos="x" id="e2det_gneE139_0" lane="gneE139_0" length="200.5" pos="0"/>
    <laneAreaDetector file="e2output.xml" freq="60" friendlyPos="x" id="e2det_gneE139_1" lane="gneE139_1" length="200.5" pos="0"/>
    <laneAreaDetector file="e2output.xml" freq="60" friendlyPos="x" id="e2det_gneE139_2" lane="gneE139_2" length="200.5" pos="0"/>
    <laneAreaDetector file="e2output.xml" freq="60" friendlyPos="x" id="e2det_-gneE11_0" lane="-gneE11_0" length="250" pos="2.92"/>
    <laneAreaDetector file="e2output.xml" freq="60" friendlyPos="x" id="e2det_-gneE11_1" lane="-gneE11_1" length="250" pos="2.92"/>
    <laneAreaDetector file="e2output.xml" freq="60" friendlyPos="x" id="e2det_-gneE11_2" lane="-gneE11_2" length="250" pos="2.92"/>
    <laneAreaDetector file="e2output.xml" freq="60" friendlyPos="x" id="e2det_gneE10_0" lane="gneE10_0" length="250" pos="20.1"/>
    <laneAreaDetector file="e2output.xml" freq="60" friendlyPos="x" id="e2det_gneE10_1" lane="gneE10_1" length="250" pos="20.1"/>
    <laneAreaDetector file="e2output.xml" freq="60" friendlyPos="x" id="e2det_gneE10_2" lane="gneE10_2" length="250" pos="20.1"/>
    <laneAreaDetector file="e2output.xml" freq="60" friendlyPos="x" id="e2det_gneE96_0" lane="gneE96_0" length="202.88" pos="0"/>
    <laneAreaDetector file="e2output.xml" freq="60" friendlyPos="x" id="e2det_gneE96_1" lane="gneE96_1" length="202.88" pos="0"/>
    <laneAreaDetector file="e2output.xml" freq="60" friendlyPos="x" id="e2det_gneE96_2" lane="gneE96_2" length="202.88" pos="0"/>
    <laneAreaDetector file="e2output.xml" freq="60" friendlyPos="x" id="e2det_-gneE110_0" lane="-gneE110_0" length="200.74" pos="0"/>
    <laneAreaDetector file="e2output.xml" freq="60" friendlyPos="x" id="e2det_-gneE110_1" lane="-gneE110_1" length="200.74" pos="0"/>
    <laneAreaDetector file="e2output.xml" freq="60" friendlyPos="x" id="e2det_-gneE110_2" lane="-gneE110_2" length="200.74" pos="0"/>
    <laneAreaDetector file="e2output.xml" freq="60" friendlyPos="x" id="e2det_gneE109_0" lane="gneE109_0" length="228.56" pos="0"/>
    <laneAreaDetector file="e2output.xml" freq="60" friendlyPos="x" id="e2det_gneE114_0" lane="gneE114_0" length="203.22" pos="0"/>
    <laneAreaDetector file="e2output.xml" freq="60" friendlyPos="x" id="e2det_gneE114_1" lane="gneE114_1" length="203.22" pos="0"/>
    <laneAreaDetector file="e2output.xml" freq="60" friendlyPos="x" id="e2det_gneE114_2" lane="gneE114_2" length="203.22" pos="0"/>
    <laneAreaDetector file="e2output.xml" freq="60" friendlyPos="x" id="e2det_-gneE114_0" lane="-gneE114_0" length="203.22" pos="0"/>
    <laneAreaDetector file="e2output.xml" freq="60" friendlyPos="x" id="e2det_-gneE114_1" lane="-gneE114_1" length="203.22" pos="0"/>
    <laneAreaDetector file="e2output.xml" freq="60" friendlyPos="x" id="e2det_-gneE114_2" lane="-gneE114_2" length="203.22" pos="0"/>
    <laneAreaDetector file="e2output.xml" freq="60" friendlyPos="x" id="e2det_gneE111_0" lane="gneE111_0" length="225.41" pos="0"/>
    <laneAreaDetector file="e2output.xml" freq="60" friendlyPos="x" id="e2det_gneE117_0" lane="gneE117_0" length="166.09" pos="0"/>
    <laneAreaDetector file="e2output.xml" freq="60" friendlyPos="x" id="e2det_gneE117_1" lane="gneE117_1" length="166.09" pos="0"/>
    <laneAreaDetector file="e2output.xml" freq="60" friendlyPos="x" id="e2det_gneE117_2" lane="gneE117_2" length="166.09" pos="0"/>
    <laneAreaDetector file="e2output.xml" freq="60" friendlyPos="x" id="e2det_-gneE117_0" lane="-gneE117_0" length="166.09" pos="0"/>
    <laneAreaDetector file="e2output.xml" freq="60" friendlyPos="x" id="e2det_-gneE117_1" lane="-gneE117_1" length="166.09" pos="0"/>
    <laneAreaDetector file="e2output.xml" freq="60" friendlyPos="x" id="e2det_-gneE117_2" lane="-gneE117_2" length="166.09" pos="0"/>
    <laneAreaDetector file="e2output.xml" freq="60" friendlyPos="x" id="e2det_gneE115_0" lane="gneE115_0" length="217.26" pos="0"/>
    <laneAreaDetector file="e2output.xml" freq="60" friendlyPos="x" id="e2det_gneE141_0" lane="gneE141_0" length="200.03" pos="0"/>
    <laneAreaDetector file="e2output.xml" freq="60" friendlyPos="x" id="e2det_gneE141_1" lane="gneE141_1" length="200.03" pos="0"/>
    <laneAreaDetector file="e2output.xml" freq="60" friendlyPos="x" id="e2det_gneE141_2" lane="gneE141_2" length="200.03" pos="0"/>
    <laneAreaDetector file="e2output.xml" freq="60" friendlyPos="x" id="e2det_-gneE118_0" lane="-gneE118_0" length="201.21" pos="0"/>
    <laneAreaDetector file="e2output.xml" freq="60" friendlyPos="x" id="e2det_gneE35_0" lane="gneE35_0" length="200.08" pos="0"/>
    <laneAreaDetector file="e2output.xml" freq="60" friendlyPos="x" id="e2det_gneE36_0" lane="gneE36_0" length="197.45" pos="0"/>
    <laneAreaDetector file="e2output.xml" freq="60" friendlyPos="x" id="e2det_gneE36_1" lane="gneE36_1" length="197.45" pos="0"/>
    <laneAreaDetector file="e2output.xml" freq="60" friendlyPos="x" id="e2det_gneE36_2" lane="gneE36_2" length="197.45" pos="0"/>
    <laneAreaDetector file="e2output.xml" freq="60" friendlyPos="x" id="e2det_gneE39_0" lane="gneE39_0" length="163.86" pos="0"/>
    <laneAreaDetector file="e2output.xml" freq="60" friendlyPos="x" id="e2det_gneE39_1" lane="gneE39_1" length="163.86" pos="0"/>
    <laneAreaDetector file="e2output.xml" freq="60" friendlyPos="x" id="e2det_gneE39_2" lane="gneE39_2" length="163.86" pos="0"/>
    <laneAreaDetector file="e2output.xml" freq="60" friendlyPos="x" id="e2det_-gneE119_0" lane="-gneE119_0" length="207.12" pos="0"/>
    <laneAreaDetector file="e2output.xml" freq="60" friendlyPos="x" id="e2det_-gneE119_1" lane="-gneE119_1" length="207.12" pos="0"/>
    <laneAreaDetector file="e2output.xml" freq="60" friendlyPos="x" id="e2det_-gneE119_2" lane="-gneE119_2" length="207.12" pos="0"/>
    <laneAreaDetector file="e2output.xml" freq="60" friendlyPos="x" id="e2det_-gneE120_0" lane="-gneE120_0" length="212.3" pos="0"/>
    <laneAreaDetector file="e2output.xml" freq="60" friendlyPos="x" id="e2det_gneE118_0" lane="gneE118_0" length="201.21" pos="0"/>
    <laneAreaDetector file="e2output.xml" freq="60" friendlyPos="x" id="e2det_gneE127_0" lane="gneE127_0" length="163.68" pos="0"/>
    <laneAreaDetector file="e2output.xml" freq="60" friendlyPos="x" id="e2det_gneE127_1" lane="gneE127_1" length="163.68" pos="0"/>
    <laneAreaDetector file="e2output.xml" freq="60" friendlyPos="x" id="e2det_gneE127_2" lane="gneE127_2" length="163.68" pos="0"/>
    <laneAreaDetector file="e2output.xml" freq="60" friendlyPos="x" id="e2det_-gneE121_0" lane="-gneE121_0" length="202.89" pos="0"/>
    <laneAreaDetector file="e2output.xml" freq="60" friendlyPos="x" id="e2det_-gneE121_1" lane="-gneE121_1" length="202.89" pos="0"/>
    <laneAreaDetector file="e2output.xml" freq="60" friendlyPos="x" id="e2det_-gneE121_2" lane="-gneE121_2" length="202.89" pos="0"/>
    <laneAreaDetector file="e2output.xml" freq="60" friendlyPos="x" id="e2det_-gneE122_0" lane="-gneE122_0" length="225.61" pos="0"/>
    <laneAreaDetector file="e2output.xml" freq="60" friendlyPos="x" id="e2det_gneE120_0" lane="gneE120_0" length="212.3" pos="0"/>
    <laneAreaDetector file="e2output.xml" freq="60" friendlyPos="x" id="e2det_gneE129_0" lane="gneE129_0" length="165.15" pos="0"/>
    <laneAreaDetector file="e2output.xml" freq="60" friendlyPos="x" id="e2det_gneE129_1" lane="gneE129_1" length="165.15" pos="0"/>
    <laneAreaDetector file="e2output.xml" freq="60" friendlyPos="x" id="e2det_gneE129_2" lane="gneE129_2" length="165.15" pos="0"/>
    <laneAreaDetector file="e2output.xml" freq="60" friendlyPos="x" id="e2det_-gneE123_0" lane="-gneE123_0" length="202.86" pos="0"/>
    <laneAreaDetector file="e2output.xml" freq="60" friendlyPos="x" id="e2det_-gneE123_1" lane="-gneE123_1" length="202.86" pos="0"/>
    <laneAreaDetector file="e2output.xml" freq="60" friendlyPos="x" id="e2det_-gneE123_2" lane="-gneE123_2" length="202.86" pos="0"/>
    <laneAreaDetector file="e2output.xml" freq="60" friendlyPos="x" id="e2det_-gneE124_0" lane="-gneE124_0" length="250" pos="6.45"/>
    <laneAreaDetector file="e2output.xml" freq="60" friendlyPos="x" id="e2det_gneE122_0" lane="gneE122_0" length="225.61" pos="0"/>
    <laneAreaDetector file="e2output.xml" freq="60" friendlyPos="x" id="e2det_gneE131_0" lane="gneE131_0" length="167.18" pos="0"/>
    <laneAreaDetector file="e2output.xml" freq="60" friendlyPos="x" id="e2det_gneE131_1" lane="gneE131_1" length="167.18" pos="0"/>
    <laneAreaDetector file="e2output.xml" freq="60" friendlyPos="x" id="e2det_gneE131_2" lane="gneE131_2" length="167.18" pos="0"/>
    <laneAreaDetector file="e2output.xml" freq="60" friendlyPos="x" id="e2det_-gneE125_0" lane="-gneE125_0" length="199.8" pos="0"/>
    <laneAreaDetector file="e2output.xml" freq="60" friendlyPos="x" id="e2det_-gneE125_1" lane="-gneE125_1" length="199.8" pos="0"/>
    <laneAreaDetector file="e2output.xml" freq="60" friendlyPos="x" id="e2det_-gneE125_2" lane="-gneE125_2" length="199.8" pos="0"/>
    <laneAreaDetector file="e2output.xml" freq="60" friendlyPos="x" id="e2det_-gneE134_0" lane="-gneE134_0" length="250" pos="22.97"/>
    <laneAreaDetector file="e2output.xml" freq="60" friendlyPos="x" id="e2det_gneE124_0" lane="gneE124_0" length="250" pos="6.45"/>
    <laneAreaDetector file="e2output.xml" freq="60" friendlyPos="x" id="e2det_gneE133_0" lane="gneE133_0" length="163.51" pos="0"/>
    <laneAreaDetector file="e2output.xml" freq="60" friendlyPos="x" id="e2det_gneE133_1" lane="gneE133_1" length="163.51" pos="0"/>
    <laneAreaDetector file="e2output.xml" freq="60" friendlyPos="x" id="e2det_gneE133_2" lane="gneE133_2" length="163.51" pos="0"/>
    <laneAreaDetector file="e2output.xml" freq="60" friendlyPos="x" id="e2det_-gneE126_0" lane="-gneE126_0" length="196.89" pos="0"/>
    <laneAreaDetector file="e2output.xml" freq="60" friendlyPos="x" id="e2det_-gneE39_0" lane="-gneE39_0" length="163.86" pos="0"/>
    <laneAreaDetector file="e2output.xml" freq="60" friendlyPos="x" id="e2det_-gneE39_1" lane="-gneE39_1" length="163.86" pos="0"/>
    <laneAreaDetector file="e2output.xml" freq="60" friendlyPos="x" id="e2det_-gneE39_2" lane="-gneE39_2" length="163.86" pos="0"/>
    <laneAreaDetector file="e2output.xml" freq="60" friendlyPos="x" id="e2det_gneE38_0" lane="gneE38_0" length="195.46" pos="0"/>
    <laneAreaDetector file="e2output.xml" freq="60" friendlyPos="x" id="e2det_gneE42_0" lane="gneE42_0" length="211.38" pos="0"/>
    <laneAreaDetector file="e2output.xml" freq="60" friendlyPos="x" id="e2det_gneE42_1" lane="gneE42_1" length="211.38" pos="0"/>
    <laneAreaDetector file="e2output.xml" freq="60" friendlyPos="x" id="e2det_gneE42_2" lane="gneE42_2" length="211.38" pos="0"/>
    <laneAreaDetector file="e2output.xml" freq="60" friendlyPos="x" id="e2det_-gneE127_0" lane="-gneE127_0" length="163.68" pos="0"/>
    <laneAreaDetector file="e2output.xml" freq="60" friendlyPos="x" id="e2det_-gneE127_1" lane="-gneE127_1" length="163.68" pos="0"/>
    <laneAreaDetector file="e2output.xml" freq="60" friendlyPos="x" id="e2det_-gneE127_2" lane="-gneE127_2" length="163.68" pos="0"/>
    <laneAreaDetector file="e2output.xml" freq="60" friendlyPos="x" id="e2det_-gneE128_0" lane="-gneE128_0" length="222.81" pos="0"/>
    <laneAreaDetector file="e2output.xml" freq="60" friendlyPos="x" id="e2det_gneE126_0" lane="gneE126_0" length="196.89" pos="0"/>
    <laneAreaDetector file="e2output.xml" freq="60" friendlyPos="x" id="e2det_gneE151_0" lane="gneE151_0" length="196.08" pos="0"/>
    <laneAreaDetector file="e2output.xml" freq="60" friendlyPos="x" id="e2det_gneE151_1" lane="gneE151_1" length="196.08" pos="0"/>
    <laneAreaDetector file="e2output.xml" freq="60" friendlyPos="x" id="e2det_gneE151_2" lane="gneE151_2" length="196.08" pos="0"/>
    <laneAreaDetector file="e2output.xml" freq="60" friendlyPos="x" id="e2det_-gneE129_0" lane="-gneE129_0" length="165.15" pos="0"/>
    <laneAreaDetector file="e2output.xml" freq="60" friendlyPos="x" id="e2det_-gneE129_1" lane="-gneE129_1" length="165.15" pos="0"/>
    <laneAreaDetector file="e2output.xml" freq="60" friendlyPos="x" id="e2det_-gneE129_2" lane="-gneE129_2" length="165.15" pos="0"/>
    <laneAreaDetector file="e2output.xml" freq="60" friendlyPos="x" id="e2det_-gneE130_0" lane="-gneE130_0" length="214.29" pos="0"/>
    <laneAreaDetector file="e2output.xml" freq="60" friendlyPos="x" id="e2det_gneE128_0" lane="gneE128_0" length="222.81" pos="0"/>
    <laneAreaDetector file="e2output.xml" freq="60" friendlyPos="x" id="e2det_gneE153_0" lane="gneE153_0" length="200.62" pos="0"/>
    <laneAreaDetector file="e2output.xml" freq="60" friendlyPos="x" id="e2det_gneE153_1" lane="gneE153_1" length="200.62" pos="0"/>
    <laneAreaDetector file="e2output.xml" freq="60" friendlyPos="x" id="e2det_gneE153_2" lane="gneE153_2" length="200.62" pos="0"/>
    <laneAreaDetector file="e2output.xml" freq="60" friendlyPos="x" id="e2det_-gneE131_0" lane="-gneE131_0" length="167.18" pos="0"/>
    <laneAreaDetector file="e2output.xml" freq="60" friendlyPos="x" id="e2det_-gneE131_1" lane="-gneE131_1" length="167.18" pos="0"/>
    <laneAreaDetector file="e2output.xml" freq="60" friendlyPos="x" id="e2det_-gneE131_2" lane="-gneE131_2" length="167.18" pos="0"/>
    <laneAreaDetector file="e2output.xml" freq="60" friendlyPos="x" id="e2det_-gneE132_0" lane="-gneE132_0" length="250" pos="7.6"/>
    <laneAreaDetector file="e2output.xml" freq="60" friendlyPos="x" id="e2det_gneE130_0" lane="gneE130_0" length="214.29" pos="0"/>
    <laneAreaDetector file="e2output.xml" freq="60" friendlyPos="x" id="e2det_gneE221_0" lane="gneE221_0" length="202.03" pos="0"/>
    <laneAreaDetector file="e2output.xml" freq="60" friendlyPos="x" id="e2det_gneE221_1" lane="gneE221_1" length="202.03" pos="0"/>
    <laneAreaDetector file="e2output.xml" freq="60" friendlyPos="x" id="e2det_gneE221_2" lane="gneE221_2" length="202.03" pos="0"/>
    <laneAreaDetector file="e2output.xml" freq="60" friendlyPos="x" id="e2det_-gneE133_0" lane="-gneE133_0" length="163.51" pos="0"/>
    <laneAreaDetector file="e2output.xml" freq="60" friendlyPos="x" id="e2det_-gneE133_1" lane="-gneE133_1" length="163.51" pos="0"/>
    <laneAreaDetector file="e2output.xml" freq="60" friendlyPos="x" id="e2det_-gneE133_2" lane="-gneE133_2" length="163.51" pos="0"/>
    <laneAreaDetector file="e2output.xml" freq="60" friendlyPos="x" id="e2det_-gneE142_0" lane="-gneE142_0" length="250" pos="20.71"/>
    <laneAreaDetector file="e2output.xml" freq="60" friendlyPos="x" id="e2det_gneE132_0" lane="gneE132_0" length="250" pos="7.6"/>
    <laneAreaDetector file="e2output.xml" freq="60" friendlyPos="x" id="e2det_gneE157_0" lane="gneE157_0" length="197.78" pos="0"/>
    <laneAreaDetector file="e2output.xml" freq="60" friendlyPos="x" id="e2det_gneE157_1" lane="gneE157_1" length="197.78" pos="0"/>
    <laneAreaDetector file="e2output.xml" freq="60" friendlyPos="x" id="e2det_gneE157_2" lane="gneE157_2" length="197.78" pos="0"/>
    <laneAreaDetector file="e2output.xml" freq="60" friendlyPos="x" id="e2det_-gneE135_0" lane="-gneE135_0" length="199.7" pos="0"/>
    <laneAreaDetector file="e2output.xml" freq="60" friendlyPos="x" id="e2det_-gneE135_1" lane="-gneE135_1" length="199.7" pos="0"/>
    <laneAreaDetector file="e2output.xml" freq="60" friendlyPos="x" id="e2det_-gneE135_2" lane="-gneE135_2" length="199.7" pos="0"/>
    <laneAreaDetector file="e2output.xml" freq="60" friendlyPos="x" id="e2det_-gneE136_0" lane="-gneE136_0" length="250" pos="48.63"/>
    <laneAreaDetector file="e2output.xml" freq="60" friendlyPos="x" id="e2det_gneE134_0" lane="gneE134_0" length="250" pos="22.97"/>
    <laneAreaDetector file="e2output.xml" freq="60" friendlyPos="x" id="e2det_gneE143_0" lane="gneE143_0" length="162.54" pos="0"/>
    <laneAreaDetector file="e2output.xml" freq="60" friendlyPos="x" id="e2det_gneE143_1" lane="gneE143_1" length="162.54" pos="0"/>
    <laneAreaDetector file="e2output.xml" freq="60" friendlyPos="x" id="e2det_gneE143_2" lane="gneE143_2" length="162.54" pos="0"/>
    <laneAreaDetector file="e2output.xml" freq="60" friendlyPos="x" id="e2det_-gneE138_0" lane="-gneE138_0" length="240.55" pos="0"/>
    <laneAreaDetector file="e2output.xml" freq="60" friendlyPos="x" id="e2det_-gneE222_0" lane="-gneE222_0" length="193.4" pos="0"/>
    <laneAreaDetector file="e2output.xml" freq="60" friendlyPos="x" id="e2det_-gneE222_1" lane="-gneE222_1" length="193.4" pos="0"/>
    <laneAreaDetector file="e2output.xml" freq="60" friendlyPos="x" id="e2det_-gneE222_2" lane="-gneE222_2" length="193.4" pos="0"/>
    <laneAreaDetector file="e2output.xml" freq="60" friendlyPos="x" id="e2det_gneE136_0" lane="gneE136_0" length="250" pos="48.63"/>
    <laneAreaDetector file="e2output.xml" freq="60" friendlyPos="x" id="e2det_gneE145_0" lane="gneE145_0" length="176.61" pos="0"/>
    <laneAreaDetector file="e2output.xml" freq="60" friendlyPos="x" id="e2det_gneE145_1" lane="gneE145_1" length="176.61" pos="0"/>
    <laneAreaDetector file="e2output.xml" freq="60" friendlyPos="x" id="e2det_gneE145_2" lane="gneE145_2" length="176.61" pos="0"/>
    <laneAreaDetector file="e2output.xml" freq="60" friendlyPos="x" id="e2det_-gneE139_0" lane="-gneE139_0" length="200.5" pos="0"/>
    <laneAreaDetector file="e2output.xml" freq="60" friendlyPos="x" id="e2det_-gneE139_1" lane="-gneE139_1" length="200.5" pos="0"/>
    <laneAreaDetector file="e2output.xml" freq="60" friendlyPos="x" id="e2det_-gneE139_2" lane="-gneE139_2" length="200.5" pos="0"/>
    <laneAreaDetector file="e2output.xml" freq="60" friendlyPos="x" id="e2det_-gneE140_0" lane="-gneE140_0" length="222.81" pos="0"/>
    <laneAreaDetector file="e2output.xml" freq="60" friendlyPos="x" id="e2det_gneE138_0" lane="gneE138_0" length="240.55" pos="0"/>
    <laneAreaDetector file="e2output.xml" freq="60" friendlyPos="x" id="e2det_gneE147_0" lane="gneE147_0" length="172.42" pos="0"/>
    <laneAreaDetector file="e2output.xml" freq="60" friendlyPos="x" id="e2det_gneE147_1" lane="gneE147_1" length="172.42" pos="0"/>
    <laneAreaDetector file="e2output.xml" freq="60" friendlyPos="x" id="e2det_gneE147_2" lane="gneE147_2" length="172.42" pos="0"/>
    <laneAreaDetector file="e2output.xml" freq="60" friendlyPos="x" id="e2det_-gneE14_0" lane="-gneE14_0" length="201.43" pos="0"/>
    <laneAreaDetector file="e2output.xml" freq="60" friendlyPos="x" id="e2det_-gneE14_1" lane="-gneE14_1" length="201.43" pos="0"/>
    <laneAreaDetector file="e2output.xml" freq="60" friendlyPos="x" id="e2det_-gneE14_2" lane="-gneE14_2" length="201.43" pos="0"/>
    <laneAreaDetector file="e2output.xml" freq="60" friendlyPos="x" id="e2det_-gneE4_0" lane="-gneE4_0" length="236.41" pos="0"/>
    <laneAreaDetector file="e2output.xml" freq="60" friendlyPos="x" id="e2det_-gneE4_1" lane="-gneE4_1" length="236.41" pos="0"/>
    <laneAreaDetector file="e2output.xml" freq="60" friendlyPos="x" id="e2det_-gneE4_2" lane="-gneE4_2" length="236.41" pos="0"/>
    <laneAreaDetector file="e2output.xml" freq="60" friendlyPos="x" id="e2det_gneE51_0" lane="gneE51_0" length="198.92" pos="0"/>
    <laneAreaDetector file="e2output.xml" freq="60" friendlyPos="x" id="e2det_gneE51_1" lane="gneE51_1" length="198.92" pos="0"/>
    <laneAreaDetector file="e2output.xml" freq="60" friendlyPos="x" id="e2det_gneE51_2" lane="gneE51_2" length="198.92" pos="0"/>
    <laneAreaDetector file="e2output.xml" freq="60" friendlyPos="x" id="e2det_-gneE141_0" lane="-gneE141_0" length="200.03" pos="0"/>
    <laneAreaDetector file="e2output.xml" freq="60" friendlyPos="x" id="e2det_-gneE141_1" lane="-gneE141_1" length="200.03" pos="0"/>
    <laneAreaDetector file="e2output.xml" freq="60" friendlyPos="x" id="e2det_-gneE141_2" lane="-gneE141_2" length="200.03" pos="0"/>
    <laneAreaDetector file="e2output.xml" freq="60" friendlyPos="x" id="e2det_gneE140_0" lane="gneE140_0" length="222.81" pos="0"/>
    <laneAreaDetector file="e2output.xml" freq="60" friendlyPos="x" id="e2det_gneE149_0" lane="gneE149_0" length="171.54" pos="0"/>
    <laneAreaDetector file="e2output.xml" freq="60" friendlyPos="x" id="e2det_gneE149_1" lane="gneE149_1" length="171.54" pos="0"/>
    <laneAreaDetector file="e2output.xml" freq="60" friendlyPos="x" id="e2det_gneE149_2" lane="gneE149_2" length="171.54" pos="0"/>
    <laneAreaDetector file="e2output.xml" freq="60" friendlyPos="x" id="e2det_-gneE143_0" lane="-gneE143_0" length="162.54" pos="0"/>
    <laneAreaDetector file="e2output.xml" freq="60" friendlyPos="x" id="e2det_-gneE143_1" lane="-gneE143_1" length="162.54" pos="0"/>
    <laneAreaDetector file="e2output.xml" freq="60" friendlyPos="x" id="e2det_-gneE143_2" lane="-gneE143_2" length="162.54" pos="0"/>
    <laneAreaDetector file="e2output.xml" freq="60" friendlyPos="x" id="e2det_-gneE144_0" lane="-gneE144_0" length="250" pos="58.15"/>
    <laneAreaDetector file="e2output.xml" freq="60" friendlyPos="x" id="e2det_gneE142_0" lane="gneE142_0" length="250" pos="20.71"/>
    <laneAreaDetector file="e2output.xml" freq="60" friendlyPos="x" id="e2det_gneE159_0" lane="gneE159_0" length="201.04" pos="0"/>
    <laneAreaDetector file="e2output.xml" freq="60" friendlyPos="x" id="e2det_gneE159_1" lane="gneE159_1" length="201.04" pos="0"/>
    <laneAreaDetector file="e2output.xml" freq="60" friendlyPos="x" id="e2det_gneE159_2" lane="gneE159_2" length="201.04" pos="0"/>