<flows> 
<flow id="flow0" from="1i" to="2o" begin="0" end="1000" number="100" /> 
<flow id="flow1" from="2i" to="1o" begin="0" end="1000" number="100" />
<flow id="flow2" from="4i" to="3o" begin="0" end="1000" number="100" /> 
<flow id="flow3" from="3i" to="4o" begin="0" end="1000" number="100" />

</flows> 